.model             jjmod                           jj(Rtype=1,  Vg=2.8mV,    Cap=0.064pF,  R0=100ohm,  Rn=17ohm,      Icrit=0.1mA)


.subckt            bfr                             1            2            3             12          13             14
*inst name         cell_name                       a            din          dout          q           xin            xout
B1                 9                               0            jjmod        area=0.5
B2                 5                               0            jjmod        area=0.5
Kd1                Ld                              L1           -0.133
Kd2                Ld                              L2           -0.133
Kdout              Ld                              Lout         0.0
Kdq                Ld                              Lq           0.0
Kout               Lq                              Lout         -0.495
Kx1                Lx                              L1           -0.186
Kx2                Lx                              L2           -0.186
Kxd                Lx                              Ld           0.19
Kxout              Lx                              Lout         0.0
Kxq                Lx                              Lq           0.0
L1                 8                               9            1.59pH
L2                 5                               8            1.59pH
Ld                 2                               3            7.45pH
Lin                1                               8            1.23pH
Lout               6                               12           31.2pH
Lq                 8                               0            7.92pH
Lx                 13                              14           7.4pH
R1                 6                               0            1e-12ohm
.ends


.subckt            bias_pair_10um                  1            2            3             4
*inst name         cell_name                       a            b            c             d
*C0                 2                               0            0.00145pF
*C6                 4                               0            0.00144pF
L0                 1                               2            3.46pH
L1                 3                               4            3.73pH
.ends


.subckt            branch2                         1            2            3
*inst name         cell_name                       a            b            c
Lip                6                               3            0.282pH
Lp1                1                               5            11.0pH
Lp2                2                               4            11.0pH
R0                 5                               6            1e-12ohm
R1                 4                               6            1e-12ohm
.ends


.subckt            spl2                            1            2            3             9           10             11                     12
*inst name         cell_name                       a            din          dout          x           xin            xout                   y
XI0                bfr                             1            4            6             7           8              5
XI14               bias_pair_10um                  10           8            2             4
XI15               bias_pair_10um                  5            11           6             3
XI1                branch2                         9            12           7
.ends


.subckt            branch3                         1            2            3             4
*inst name         cell_name                       a            b            c             d
Lip                7                               4            0.312pH
Lp1                1                               6            11.8pH
Lp2                2                               7            10.2pH
Lp3                3                               5            11.8pH
R0                 6                               7            1e-12ohm
R1                 5                               7            1e-12ohm
.ends


.subckt            const0                          1            2            11            12          13
*inst name         cell_name                       din          dout         q             xin         xout
B1                 8                               0            jjmod        area=0.5
B2                 4                               0            jjmod        area=0.5
Kd1                Ld                              L1           -0.128
Kd2                Ld                              L2           -0.135
Kdout              Ld                              Lout         -0.000253
Kdq                Ld                              Lq           -0.00468
Kout               Lq                              Lout         -0.495
Kx1                Lx                              L1           -0.185
Kx2                Lx                              L2           -0.189
Kxd                Lx                              Ld           0.193
Kxout              Lx                              Lout         -7.94e-05
Kxq                Lx                              Lq           -0.00421
L1                 7                               8            1.56pH
L2                 4                               7            1.66pH
Ld                 1                               2            7.49pH
Lout               5                               11           31.2pH
Lq                 7                               0            7.82pH
Lx                 12                              13           7.47pH
R1                 5                               0            1e-12ohm
.ends


.subckt            const1                          1            2            7             8           9
*inst name         cell_name                       din          dout         q             xin         xout
L1                 8                               4            0.01pH
L2                 6                               9            0.01pH
L3                 1                               3            0.01pH
L4                 5                               2            0.01pH
XI0                const0                          5            3            7             6           4
.ends


.subckt            or_bb                           1            2            3             4           12             13                     14
*inst name         cell_name                       a            b            din           dout        q              xin                    xout
XI0                bfr                             1            3            8             9           13             5
XI2                bfr                             2            11           4             10          6              14
XI3                branch3                         9            7            10            12
XI1                const1                          8            11           7             5           6
.ends


.subckt            and_bb                          1            2            3             4           12             13                     14
*inst name         cell_name                       a            b            din           dout        q              xin                    xout
XI0                bfr                             1            3            8             9           13             5
XI2                bfr                             2            11           4             10          7              14
XI3                branch3                         9            6            10            12
XI1                const0                          8            11           6             5           7
.ends


.subckt            maj3_KSA_GP_ene_opt             1            2            3             4           5              6                      7          8     9         10        11         12
*inst name         cell_name                       G            P            a             ac_in<0>    ac_in<1>       ac_out<0>              ac_out<1>  b     dc_in<0>  dc_in<1>  dc_out<0>  dc_out<1>
XI9                and_bb                          13           14           19            9           1              20                     4
XI10               or_bb                           18           16           11            19          2              6                      20
XI11               spl2                            3            10           17            14          5              15                     16
XI12               spl2                            8            17           12            13          15             7                      18
.ends


.subckt            boost2_3_f3                     1            2            3             41          42             43                     44         45
*inst name         cell_name                       a            din          dout          q1          q2             q3                     xin        xout
B1                 11                              0            jjmod        area=0.5
B1a                36                              0            jjmod        area=0.5
B1b                14                              0            jjmod        area=0.5
B1c                17                              0            jjmod        area=0.5
B2                 24                              0            jjmod        area=0.5
B2a                13                              0            jjmod        area=0.5
B2b                5                               0            jjmod        area=0.5
B2c                15                              0            jjmod        area=0.5
Kd1                Ld                              L1           -0.0644
Kd1a               Ld                              L1a          -0.0639
Kd1b               Ld                              L1b          -0.0662
Kd1c               Ld                              L1c          -0.066
Kd2                Ld                              L2           -0.0646
Kd2a               Ld                              L2a          -0.0653
Kd2b               Ld                              L2b          -0.0666
Kd2c               Ld                              L2c          -0.0642
Kdouta             Ld                              Louta        0.0007254
Kdoutb             Ld                              Loutb        0.0004117
Kdoutc             Ld                              Loutc        -0.001253
Kdq                Ld                              Lq           0.0
Kdqa               Ld                              Lqa          -0.0006276
Kdqb               Ld                              Lqb          -0.0005469
Kdqc               Ld                              Lqc          0.001507
Kdql               Ld                              Lql          0.0
Kdqr               Ld                              Lqr          0.0
Kouta              Lqa                             Louta        -0.493
Koutb              Lqb                             Loutb        -0.493
Koutc              Lqc                             Loutc        -0.493
Kx1                Lx                              L1           -0.0881
Kx1a               Lx                              L1a          -0.0893
Kx1b               Lx                              L1b          -0.0909
Kx1c               Lx                              L1c          -0.0907
Kx2                Lx                              L2           -0.0885
Kx2a               Lx                              L2a          -0.0903
Kx2b               Lx                              L2b          -0.0908
Kx2c               Lx                              L2c          -0.0894
Kxd                Lx                              Ld           0.177
Kxouta             Lx                              Louta        0.0003079
Kxoutb             Lx                              Loutb        -9.704e-05
Kxoutc             Lx                              Loutc        -0.0003689
Kxq                Lx                              Lq           0.0
Kxqa               Lx                              Lqa          -0.0003187
Kxqb               Lx                              Lqb          -0.0003226
Kxqc               Lx                              Lqc          0.0008805
Kxql               Lx                              Lql          0.0
Kxqr               Lx                              Lqr          0.0
L1                 31                              11           1.58pH
L1a                34                              36           1.49pH
L1b                32                              14           1.49pH
L1c                29                              17           1.49pH
L2                 24                              31           1.58pH
L2a                13                              34           1.49pH
L2b                5                               32           1.49pH
L2c                15                              29           1.49pH
Ld                 2                               3            36.97pH
Lin                1                               31           2.03pH
Lina               33                              34           1.23pH
Linb               4                               32           1.37pH
Linc               37                              29           1.36pH
Louta              20                              41           31.1pH
Loutb              12                              42           31.1pH
Loutc              27                              43           31.1pH
Lq                 31                              35           7.76pH
Lqa                34                              39           7.9pH
Lqb                32                              19           7.89pH
Lqc                29                              21           7.91pH
Lql                35                              33           5.27pH
Lqr                40                              35           5.06pH
Lqrb               40                              4            0.19pH
Lqrc               40                              37           1.36pH
Lx                 44                              45           36.64pH
R1a                20                              0            1e-12ohm
R1b                12                              0            1e-12ohm
R4                 39                              0            1e-12ohm
R5                 19                              0            1e-12ohm
R6                 27                              0            1e-12ohm
R7                 21                              0            1e-12ohm
.ends


.subckt            inv                             1            2            3             12          13             14
*inst name         cell_name                       a            din          dout          q           xin            xout
B1                 9                               0            jjmod        area=0.6
B2                 5                               0            jjmod        area=0.6
Kd1                Ld                              L1           -0.133
Kd2                Ld                              L2           -0.133
Kdout              Ld                              Lout         0.0
Kdq                Ld                              Lq           0.0
Kout               Lq                              Lout         0.432
Kx1                Lx                              L1           -0.186
Kx2                Lx                              L2           -0.186
Kxd                Lx                              Ld           0.19
Kxout              Lx                              Lout         0.0
Kxq                Lx                              Lq           0.0
L1                 8                               9            1.59pH
L2                 5                               8            1.59pH
Ld                 2                               3            7.44pH
Lin                1                               8            1.24pH
Lout               6                               12           31.0pH
Lq                 8                               0            6.49pH
Lx                 13                              14           7.39pH
R1                 6                               0            1e-12ohm
.ends


.subckt            maj_bbi                         1            2            3             4           5              13                     14         15
*inst name         cell_name                       a            b            c             din         dout           q                      xin        xout
XI0                bfr                             1            4            9             11          14             6
XI1                bfr                             2            9            12            7           6              8
XI3                branch3                         11           7            10            13
XI2                inv                             3            12           5             10          8              15
.ends


.subckt            maj_bbb                         1            2            3             4           5              13                     14         15
*inst name         cell_name                       a            b            c             din         dout           q                      xin        xout
XI0                bfr                             1            4            8             11          14             6
XI1                bfr                             2            8            10            12          6              7
XI2                bfr                             3            10           5             9           7              15
XI3                branch3                         11           12           9             13
.ends


.subckt            maj_ibb                         1            2            3             4           5              13                     14         15
*inst name         cell_name                       a            b            c             din         dout           q                      xin        xout
XI1                bfr                             2            8            10            12          6              7
XI2                bfr                             3            10           5             9           7              15
XI3                branch3                         11           12           9             13
XI0                inv                             1            4            8             11          14             6
.ends


.subckt            maj3_KSA_sum_ene_opt_boost      1            2            3             4           5              6                      7          8     9         10        11         12         13         14         15         34
*inst name         cell_name                       a            ac_in<0>     ac_in<1>      ac_in<2>    ac_out<0>      ac_out<1>              ac_out<2>  b     c         dc_in<0>  dc_in<1>   dc_in<2>   dc_out<0>  dc_out<1>  dc_out<2>  sum
XI3                bfr                             27           30           14            18          29             6
XI18               boost2_3_f3                     9            15           21            27          32             31                     7          20
XI0                maj_bbb                         24           17           31            11          28             33                     3          26
XI1                maj_bbi                         25           23           32            28          30             16                     26         29
XI2                maj_ibb                         33           16           18            10          13             34                     2          5
XI16               spl2                            8            22           21            17          19             20                     23
XI6                spl2                            1            12           22            24          4              19                     25
.ends


.subckt            sink                            1            2            3             10          11
*inst name         cell_name                       a            din          dout          xin         xout
B1                 8                               0            jjmod        area=0.5
B2                 5                               0            jjmod        area=0.5
Kd1                Ld                              L1           -0.133
Kd2                Ld                              L2           -0.133
Kdq                Ld                              Lq           0.0
Kx1                Lx                              L1           -0.186
Kx2                Lx                              L2           -0.186
Kxd                Lx                              Ld           0.19
Kxq                Lx                              Lq           0.0
L1                 7                               8            1.59pH
L2                 5                               7            1.59pH
Ld                 2                               3            7.45pH
Lin                1                               7            1.23pH
Lq                 7                               0            7.92pH
Lx                 10                              11           7.4pH
.ends


*this is top cell  maj3_8_bit_KSA_ene_opt_booster
R10                1158                            1247         1000.0ohm
R11                1159                            337          1000.0ohm
R12                1160                            1297         1000.0ohm
R13                1164                            341          1000.0ohm
R14                1166                            1350         1000.0ohm
R15                1167                            1416         1000.0ohm
R16                1171                            414          1000.0ohm
R17                1433                            1402         1000.0ohm
R18                1450                            1406         1000.0ohm
R3                 1105                            853          1000.0ohm
R4                 1117                            820          1000.0ohm
R5                 1120                            331          1000.0ohm
R6                 1133                            1114         1000.0ohm
R7                 1143                            1190         1000.0ohm
R8                 1144                            1186         1000.0ohm
R9                 1146                            369          1000.0ohm
Rac1               1057                            1458         100000.0ohm
Rac2               1087                            1461         100000.0ohm
Rdc                1070                            1355         100000.0ohm
V19                1105                            0            PWL          (0ps          0mv         20ps           {{input[0]}})
V20                1120                            0            PWL          (0ps          0mv         20ps           {{input[1]}})
V21                1143                            0            PWL          (0ps          0mv         20ps           {{input[2]}})
V22                1146                            0            PWL          (0ps          0mv         20ps           {{input[3]}})
V23                1159                            0            PWL          (0ps          0mv         20ps           {{input[4]}})
V24                1164                            0            PWL          (0ps          0mv         20ps           {{input[5]}})
V25                1167                            0            PWL          (0ps          0mv         20ps           {{input[6]}})
V26                1433                            0            PWL          (0ps          0mv         20ps           {{input[7]}})
V27                1117                            0            PWL          (0ps          0mv         20ps           {{input[8]}})
V28                1133                            0            PWL          (0ps          0mv         20ps           {{input[9]}})
V29                1144                            0            PWL          (0ps          0mv         20ps           {{input[10]}})
V30                1158                            0            PWL          (0ps          0mv         20ps           {{input[11]}})
V31                1160                            0            PWL          (0ps          0mv         20ps           {{input[12]}})
V32                1166                            0            PWL          (0ps          0mv         20ps           {{input[13]}})
V33                1171                            0            PWL          (0ps          0mv         20ps           {{input[14]}})
V34                1450                            0            PWL          (0ps          0mv         20ps           {{input[15]}})
VDC                1070                            0            PWL          (0ps          0mV         20ps           113000mV)
VAC1               1057                            0            SIN          (0            81000mV     {{freq}}MEGHz  {{40+period|int/4}}ps  0)
VAC2               1087                            0            SIN          (0            81000mV     {{freq}}MEGHz  40ps                   0)
XI1039             and_bb                          763          1001         666           949         954            665                    953
XI1041             and_bb                          781          1007         1050          666         948            1045                   665
XI1044             and_bb                          752          579          1019          920         343            1017                   921
XI1046             and_bb                          668          961          1452          1019        917            1451                   1017
XI1049             and_bb                          1175         800          1036          1151        1270           1037                   749
XI1051             and_bb                          1251         974          1035          1036        1038           1034                   1037
XI1054             and_bb                          1346         797          1044          1262        1428           1043                   1256
XI1056             and_bb                          1362         987          1047          1044        1048           1046                   1043
XI1059             and_bb                          334          793          261           1401        1437           260                    1385
XI1064             and_bb                          452          476          1053          390         1338           1052                   381
XI1089             and_bb                          1015         1058         1132          1041        1042           312                    1040
XI1092             and_bb                          1029         805          313           520         1318           1136                   519
XI1095             and_bb                          1072         1092         1125          981         916            263                    980
XI1098             and_bb                          1069         1097         1122          427         1010           262                    426
XI440              and_bb                          1315         627          1279          1287        479            1278                   1286
XI441              and_bb                          1316         672          1280          482         480            1281                   481
XI442              and_bb                          958          362          928           487         484            927                    486
XI443              and_bb                          1234         896          933           501         499            932                    500
XI444              and_bb                          1292         887          935           506         504            934                    505
XI445              and_bb                          588          361          938           692         689            937                    690
XI1000             bfr                             458          74           72            1098        71             73
XI1001             bfr                             1303         771          769           1058        770            87
XI1002             bfr                             832          86           84            1303        773            85
XI1003             bfr                             614          83           82            805         671            774
XI1004             bfr                             960          699          830           614         62             55
XI1005             bfr                             835          703          50            1092        702            836
XI1006             bfr                             973          77           876           835         78             874
XI1007             bfr                             474          72           44            1097        73             45
XI1008             bfr                             986          696          698           474         695            697
XI1012             bfr                             1018         69           68            646         67             1112
XI1013             bfr                             1032         66           1110          624         64             65
XI1014             bfr                             615          1108         81            922         1107           1068