.model             jjmod                   jj(Rtype=1,  Vg=2.8mV,    Cap=0.064pF,  R0=100ohm,  Rn=17ohm,      Icrit=0.1mA)


.subckt            and_bb                  1            2            3             4           12             13                     14
*inst name         cell_name               a            b            din           dout        q              xin                    xout
XI0                bfr                     1            3            8             9           13             5
XI2                bfr                     2            11           4             10          7              14
XI3                branch3                 9            6            10            12
XI1                const0                  8            11           6             5           7
.ends


.subckt            bfr                     1            2            3             12          13             14
*inst name         cell_name               a            din          dout          q           xin            xout
B1                 9                       0            jjmod        area=0.5
B2                 5                       0            jjmod        area=0.5
Kd1                Ld                      L1           -0.133
Kd2                Ld                      L2           -0.133
Kdout              Ld                      Lout         0.0
Kdq                Ld                      Lq           0.0
Kout               Lq                      Lout         -0.495
Kx1                Lx                      L1           -0.186
Kx2                Lx                      L2           -0.186
Kxd                Lx                      Ld           0.19
Kxout              Lx                      Lout         0.0
Kxq                Lx                      Lq           0.0
L1                 8                       9            1.59pH
L2                 5                       8            1.59pH
Ld                 2                       3            7.45pH
Lin                1                       8            1.23pH
Lout               6                       12           31.2pH
Lq                 8                       0            7.92pH
Lx                 13                      14           7.4pH
R1                 6                       0            1e-12ohm
.ends


.subckt            bfrL                    1            2            3             12          13             14
*inst name         cell_name               a            din          dout          q           xin            xout
B1                 9                       0            jjmod        area=1.0
B2                 5                       0            jjmod        area=1.0
Kd1                Ld                      L1           -0.135
Kd2                Ld                      L2           -0.135
Kdout              Ld                      Lout         0.0
Kdq                Ld                      Lq           0.0
Kout               Lq                      Lout         -0.495
Kx1                Lx                      L1           -0.187
Kx2                Lx                      L2           -0.187
Kxd                Lx                      Ld           0.192
Kxout              Lx                      Lout         0.0
Kxq                Lx                      Lq           0.0
L1                 8                       9            1.59pH
L2                 5                       8            1.59pH
Ld                 2                       3            7.43pH
Lin                1                       8            1.24pH
Lout               6                       12           31.1pH
Lq                 8                       0            7.92pH
Lx                 13                      14           7.38pH
R1                 6                       0            1e-12ohm
.ends


.subckt            bias_pair_10um          1            2            3             4
*inst name         cell_name               a            b            c             d
*C0                 2                       0            0.00145pF
*C6                 4                       0            0.00144pF
L0                 1                       2            3.46pH
L1                 3                       4            3.73pH
.ends


.subckt            bias_pair_20um          1            2            3             4
*inst name         cell_name               a            b            c             d
XI0                bias_pair_10um          1            6            3             5
XI1                bias_pair_10um          6            2            5             4
.ends


.subckt            branch2                 1            2            3
*inst name         cell_name               a            b            c
Lip                6                       3            0.282pH
Lp1                1                       5            11.0pH
Lp2                2                       4            11.0pH
R0                 5                       6            1e-12ohm
R1                 4                       6            1e-12ohm
.ends


.subckt            branch3                 1            2            3             4
*inst name         cell_name               a            b            c             d
Lip                7                       4            0.312pH
Lp1                1                       6            11.8pH
Lp2                2                       7            10.2pH
Lp3                3                       5            11.8pH
R0                 6                       7            1e-12ohm
R1                 5                       7            1e-12ohm
.ends


.subckt            const0                  1            2            11            12          13
*inst name         cell_name               din          dout         q             xin         xout
B1                 8                       0            jjmod        area=0.5
B2                 4                       0            jjmod        area=0.5
Kd1                Ld                      L1           -0.128
Kd2                Ld                      L2           -0.135
Kdout              Ld                      Lout         -0.000253
Kdq                Ld                      Lq           -0.00468
Kout               Lq                      Lout         -0.495
Kx1                Lx                      L1           -0.185
Kx2                Lx                      L2           -0.189
Kxd                Lx                      Ld           0.193
Kxout              Lx                      Lout         -7.94e-05
Kxq                Lx                      Lq           -0.00421
L1                 7                       8            1.56pH
L2                 4                       7            1.66pH
Ld                 1                       2            7.49pH
Lout               5                       11           31.2pH
Lq                 7                       0            7.82pH
Lx                 12                      13           7.47pH
R1                 5                       0            1e-12ohm
.ends


.subckt            const1                  1            2            7             8           9
*inst name         cell_name               din          dout         q             xin         xout
L1                 8                       4            0.01pH
L2                 6                       9            0.01pH
L3                 1                       3            0.01pH
L4                 5                       2            0.01pH
XI0                const0                  5            3            7             6           4
.ends


.subckt            inv                     1            2            3             12          13             14
*inst name         cell_name               a            din          dout          q           xin            xout
B1                 9                       0            jjmod        area=0.6
B2                 5                       0            jjmod        area=0.6
Kd1                Ld                      L1           -0.133
Kd2                Ld                      L2           -0.133
Kdout              Ld                      Lout         0.0
Kdq                Ld                      Lq           0.0
Kout               Lq                      Lout         0.432
Kx1                Lx                      L1           -0.186
Kx2                Lx                      L2           -0.186
Kxd                Lx                      Ld           0.19
Kxout              Lx                      Lout         0.0
Kxq                Lx                      Lq           0.0
L1                 8                       9            1.59pH
L2                 5                       8            1.59pH
Ld                 2                       3            7.44pH
Lin                1                       8            1.24pH
Lout               6                       12           31.0pH
Lq                 8                       0            6.49pH
Lx                 13                      14           7.39pH
R1                 6                       0            1e-12ohm
.ends


.subckt            maj_bbb                 1            2            3             4           5              13                     14         15
*inst name         cell_name               a            b            c             din         dout           q                      xin        xout
XI0                bfr                     1            4            8             11          14             6
XI1                bfr                     2            8            10            12          6              7
XI2                bfr                     3            10           5             9           7              15
XI3                branch3                 11           12           9             13
.ends


.subckt            maj_bbi                 1            2            3             4           5              13                     14         15
*inst name         cell_name               a            b            c             din         dout           q                      xin        xout
XI0                bfr                     1            4            9             11          14             6
XI1                bfr                     2            9            12            7           6              8
XI3                branch3                 11           7            10            13
XI2                inv                     3            12           5             10          8              15
.ends


.subckt            maj_ibb                 1            2            3             4           5              13                     14         15
*inst name         cell_name               a            b            c             din         dout           q                      xin        xout
XI1                bfr                     2            8            10            12          6              7
XI2                bfr                     3            10           5             9           7              15
XI3                branch3                 11           12           9             13
XI0                inv                     1            4            8             11          14             6
.ends


.subckt            or_bb                   1            2            3             4           12             13                     14
*inst name         cell_name               a            b            din           dout        q              xin                    xout
XI0                bfr                     1            3            8             9           13             5
XI2                bfr                     2            11           4             10          6              14
XI3                branch3                 9            7            10            12
XI1                const1                  8            11           7             5           6
.ends


.subckt            sink                    1            2            3             10          11
*inst name         cell_name               a            din          dout          xin         xout
B1                 8                       0            jjmod        area=0.5
B2                 5                       0            jjmod        area=0.5
Kd1                Ld                      L1           -0.133
Kd2                Ld                      L2           -0.133
Kdq                Ld                      Lq           0.0
Kx1                Lx                      L1           -0.186
Kx2                Lx                      L2           -0.186
Kxd                Lx                      Ld           0.19
Kxq                Lx                      Lq           0.0
L1                 7                       8            1.59pH
L2                 5                       7            1.59pH
Ld                 2                       3            7.45pH
Lin                1                       7            1.23pH
Lq                 7                       0            7.92pH
Lx                 10                      11           7.4pH
.ends


.subckt            spl2                    1            2            3             9           10             11                     12
*inst name         cell_name               a            din          dout          x           xin            xout                   y
XI0                bfr                     1            4            6             7           8              5
XI14               bias_pair_10um          10           8            2             4
XI15               bias_pair_10um          5            11           6             3
XI1                branch2                 9            12           7
.ends


.subckt            spl3L                   1            2            3             9           10             11                     12         13
*inst name         cell_name               a            din          dout          x           xin            xout                   y          z
XI0                bfrL                    1            4            6             7           8              5
XI14               bias_pair_20um          10           8            2             4
XI15               bias_pair_20um          5            11           6             3
XI1                branch3                 9            12           13            7
.ends


.subckt            maj3_KSA_GP_ene_opt     1            2            3             4           5              6                      7          8     9         10        11         12
*inst name         cell_name               G            P            a             ac_in<0>    ac_in<1>       ac_out<0>              ac_out<1>  b     dc_in<0>  dc_in<1>  dc_out<0>  dc_out<1>
XI9                and_bb                  13           14           19            9           1              20                     4
XI10               or_bb                   18           16           11            19          2              6                      20
XI11               spl2                    3            10           17            14          5              15                     16
XI12               spl2                    8            17           12            13          15             7                      18
.ends


.subckt            maj3_KSA_sum_ene_opt    1            2            3             4           5              6                      7          8     9         10        11         12         13         14         15         34
*inst name         cell_name               a            ac_in<0>     ac_in<1>      ac_in<2>    ac_out<0>      ac_out<1>              ac_out<2>  b     c         dc_in<0>  dc_in<1>   dc_in<2>   dc_out<0>  dc_out<1>  dc_out<2>  sum
XI3                bfr                     27           30           14            18          29             6
XI0                maj_bbb                 24           17           31            11          28             33                     3          26
XI1                maj_bbi                 25           23           32            28          30             16                     26         29
XI2                maj_ibb                 33           16           18            10          13             34                     2          5
XI16               spl2                    8            22           21            17          19             20                     23
XI6                spl2                    1            12           22            24          4              19                     25
XI4                spl3L                   9            21           15            31          20             7                      32         27
.ends


*this is top cell  maj3_8_bit_KSA_ene_opt
R10                1038                    1180         1000.0ohm
R11                1040                    15           1000.0ohm
R12                1042                    1252         1000.0ohm
R13                1047                    19           1000.0ohm
R14                1051                    1323         1000.0ohm
R15                1054                    1408         1000.0ohm
R16                1061                    95           1000.0ohm
R17                1427                    1392         1000.0ohm
R18                1448                    1396         1000.0ohm
R3                 949                     643          1000.0ohm
R4                 968                     601          1000.0ohm
R5                 974                     8            1000.0ohm
R6                 994                     964          1000.0ohm
R7                 1013                    1088         1000.0ohm
R8                 1015                    1083         1000.0ohm
R9                 1020                    47           1000.0ohm
Rac1               890                     1458         100000.0ohm
Rac2               927                     1461         100000.0ohm
Rdc                905                     1330         100000.0ohm
V10                1038                    0            PWL          (0ps          0mv         20ps           {{input[7]}})
V11                1040                    0            PWL          (0ps          0mv         20ps           {{input[8]}})
V12                1042                    0            PWL          (0ps          0mv         20ps           {{input[9]}})
V13                1047                    0            PWL          (0ps          0mv         20ps           {{input[10]}})
V14                1051                    0            PWL          (0ps          0mv         20ps           {{input[11]}})
V15                1054                    0            PWL          (0ps          0mv         20ps           {{input[12]}})
V16                1061                    0            PWL          (0ps          0mv         20ps           {{input[13]}})
V17                1427                    0            PWL          (0ps          0mv         20ps           {{input[14]}})
V18                1448                    0            PWL          (0ps          0mv         20ps           {{input[15]}})
V3                 949                     0            PWL          (0ps          0mv         20ps           {{input[0]}})
V4                 968                     0            PWL          (0ps          0mv         20ps           {{input[1]}})
V5                 974                     0            PWL          (0ps          0mv         20ps           {{input[2]}})
V6                 994                     0            PWL          (0ps          0mv         20ps           {{input[3]}})
V7                 1013                    0            PWL          (0ps          0mv         20ps           {{input[4]}})
V8                 1015                    0            PWL          (0ps          0mv         20ps           {{input[5]}})
V9                 1020                    0            PWL          (0ps          0mv         20ps           {{input[6]}})
VDC                905                     0            PWL          (0ps          0mV         20ps           113000mV)
VAC1               890                     0            SIN          (0            81000mV     {{freq}}MEGHz  {{40+period|int/4}}ps  0)
VAC2               927                     0            SIN          (0            81000mV     {{freq}}MEGHz  40ps                   0)
XI1039             and_bb                  522          827          403           768         773            402                    772
XI1041             and_bb                  548          836          881           403         767            876                    402
XI1044             and_bb                  511          311          848           729         21             846                    730
XI1046             and_bb                  405          780          1451          848         726            1450                   846
XI1049             and_bb                  1065         571          866           1026        1217           867                    508
XI1051             and_bb                  1184         795          865           866         868            864                    867
XI1054             and_bb                  1317         567          875           1203        1421           874                    1195
XI1056             and_bb                  1339         811          878           875         879            877                    874
XI1059             and_bb                  11           562          883           1390        1432           882                    1370
XI1064             and_bb                  147          182          886           68          1303           885                    59
XI1089             and_bb                  844          892          993           871         872            1002                   870
XI1092             and_bb                  859          579          991           237         1276           1000                   236
XI1095             and_bb                  907          932          984           803         725            998                    802
XI1098             and_bb                  904          939          977           110         839            996                    109
XI440              and_bb                  1273         363          1230          1240        187            1229                   1239
XI441              and_bb                  1274         410          1231          191         189            1232                   190
XI442              and_bb                  777          40           741           197         194            740                    196
XI443              and_bb                  1155         705          747           216         214            746                    215
XI444              and_bb                  1246         691          750           222         220            749                    221
XI445              and_bb                  320          39           754           431         428            753                    429
XI1000             bfr                     155          581          439           940         580            438
XI1001             bfr                     1258         533          531           892         532            530
XI1002             bfr                     617          538          536           1258        537            534
XI1003             bfr                     350          409          540           579         408            539
XI1004             bfr                     779          443          615           350         442            614
XI1005             bfr                     620          448          622           932         447            621
XI1006             bfr                     794          432          672           620         423            669
XI1007             bfr                     178          439          452           939         438            451
XI1008             bfr                     810          436          441           178         435            440
XI1012             bfr                     847          962          960           382         961            959
XI1013             bfr                     862          957          955           360         956            954
XI1014             bfr                     351          952          903           731         951            902
XI1022             bfr                     317          1315         1309          384         1313           1308
XI1027             bfr                     412          159          1418          798         157            472
XI1037             bfr                     478          597          768           863         596            772
XI1040             bfr                     767          450          889           617         449            888
XI1042             bfr                     774          763          729           869         762            730
XI1045             bfr                     726          765          13            779         766            12
XI1047             bfr                     526          640          1026          1354        639            508
XI1050             bfr                     868          1172         183           794         1074           181
XI1052             bfr                     517          648          1203          1210        647            1195
XI1055             bfr                     879          1236         260           810         1218           259
XI1057             bfr                     557          838          1390          1394        837            1370
XI1062             bfr                     570          835          68            108         834            59
XI1070             bfr                     346          1449         27            714         1206           24
XI1071             bfr                     724          889          284           633         888            283
XI1072             bfr                     393          284          195           711         283            154
XI1073             bfr                     635          13           287           712         12             285
XI1074             bfr                     348          287          185           713         285            184
XI1075             bfr                     370          183          289           603         181            288
XI1076             bfr                     392          289          253           618         288            254
XI1077             bfr                     825          260          293           715         259            292
XI1078             bfr                     347          293          262           605         292            263
XI1079             bfr                     369          7            295           599         1437           294
XI1080             bfr                     391          295          281           716         294            282
XI1081             bfr                     303          125          894           600         120            893
XI1082             bfr                     324          894          807           718         893            804
XI1083             bfr                     149          807          103           719         804            102
XI1084             bfr                     322          103          107           720         102            106
XI1085             bfr                     301          107          298           722         106            297
XI1086             bfr                     384          298          455           723         297            1417
XI1090             bfr                     610          173          871           915         171            870
XI1093             bfr                     926          239          237           930         238            236
XI1096             bfr                     933          809          803           925         808            802
XI1099             bfr                     940          114          110           918         112            109
XI1100             bfr                     849          1211         117           55          1439           116
XI1101             bfr                     850          941          121           62          976            119
XI1102             bfr                     852          121          126           1221        119            124
XI1103             bfr                     853          938          855           1202        970            854
XI1104             bfr                     776          855          910           1023        854            909
XI1105             bfr                     778          935          500           457         946            499
XI1106             bfr                     781          500          784           1422        499            783
XI1107             bfr                     785          934          502           35          945            501
XI1108             bfr                     788          502          504           651         501            503
XI1109             bfr                     789          523          512           42          521            510
XI1110             bfr                     791          512          528           1178        510            527
XI1111             bfr                     360          528          541           1089        527            529
XI1112             bfr                     793          541          543           48          529            542