**** **** **** **** **** **** **** **** **** **** **** 
*JSIM CONTROL FILE FOR CADENCE BY KAMEDA@CQ.JP.NEC.COM
**** **** **** **** **** **** **** **** **** **** ****

*JSIM MODEL
**HSTP**
.MODEL JJMOD JJ(RTYPE=1, VG=2.8MV, CAP=0.064PF, R0=100OHM, RN=17OHM, ICRIT=0.1MA)
**OPEN**
*.MODEL JJMOD JJ(RTYPE=1, VG=2.8MV, CAP=0.218PF, R0=200OHM, RN=17OHM, ICRIT=0.1MA)


*** NETLIST FILE ***
**** **** **** **** **** **** **** ****+
*** LIB : HSTP_TTANAKA_LIB
*** CELL: RISAKO_GP_TEST
*** VIEW: SCHEMATIC
*** DEC 20 15:30:08 2021
**** **** **** **** **** **** **** ****

*** BRANCH3
.SUBCKT BRANCH3          1          2          3          4
***         A         B         C         D
LIP                5         4   0.312PH FCHECK
LP3                3         6  11.800PH FCHECK
LP2                2         5  10.200PH FCHECK
LP1                1         7  11.800PH FCHECK
R0                 7         5   1.000POHM
R1                 6         5   1.000POHM
.ENDS

*** CONST0
.SUBCKT CONST0          8          9         10         11         12
***       DIN      DOUT         Q       XIN      XOUT
KXOUT              LX       LOUT -0.000
KD1                LD         L1 -0.128
KXQ                LX         LQ -0.004
KDOUT              LD       LOUT -0.000
KXD                LX         LD 0.193
KDQ                LD         LQ -0.005
KD2                LD         L2 -0.135
KX1                LX         L1 -0.185
KX2                LX         L2 -0.189
KOUT               LQ       LOUT -0.495
LD                 8         9   7.490PH FCHECK
LX                11        12   7.470PH FCHECK
L1                13        14   1.560PH FCHECK
L2                 5        13   1.660PH FCHECK
LOUT              15        10  31.200PH FCHECK
LQ                13         0   7.820PH FCHECK
R1                15         0   1.000POHM
B2                 5         0  JJMOD AREA=0.50
B1                14         0  JJMOD AREA=0.50
.ENDS

*** CONST1
.SUBCKT CONST1          8          9         10         11         12
***       DIN      DOUT         Q       XIN      XOUT
L1                11        16   0.010PH FCHECK
L2                17        12   0.010PH FCHECK
L3                 8        18   0.010PH FCHECK
L4                19         9   0.010PH FCHECK
XI0            CONST0         19         18         10         17         16
.ENDS

*** BFR
.SUBCKT BFR          1          8          9         10         11         12
***         A       DIN      DOUT         Q       XIN      XOUT
KXOUT              LX       LOUT 0.000
KD1                LD         L1 -0.133
KXQ                LX         LQ 0.000
KDOUT              LD       LOUT 0.000
KXD                LX         LD 0.190
KDQ                LD         LQ 0.000
KD2                LD         L2 -0.133
KX1                LX         L1 -0.186
KX2                LX         L2 -0.186
KOUT               LQ       LOUT -0.495
LD                 8         9   7.450PH FCHECK
LX                11        12   7.400PH FCHECK
LIN                1        13   1.230PH FCHECK
L1                13        14   1.590PH FCHECK
L2                 5        13   1.590PH FCHECK
LOUT              15        10  31.200PH FCHECK
LQ                13         0   7.920PH FCHECK
R1                15         0   1.000POHM
B2                 5         0  JJMOD AREA=0.50
B1                14         0  JJMOD AREA=0.50
.ENDS

*** OR_BB
.SUBCKT OR_BB          1          2          8          9         10         11         12
***         A         B       DIN      DOUT         Q       XIN      XOUT
XI3           BRANCH3         16         20         21         10
XI1            CONST1         22         23         20         24         25
XI2               BFR          2         23          9         21         25         12
XI0               BFR          1          8         22         16         11         24
.ENDS

*** INV
.SUBCKT INV          1          8          9         10         11         12
***         A       DIN      DOUT         Q       XIN      XOUT
KXOUT              LX       LOUT 0.000
KD1                LD         L1 -0.133
KXQ                LX         LQ 0.000
KDOUT              LD       LOUT 0.000
KXD                LX         LD 0.190
KDQ                LD         LQ 0.000
KD2                LD         L2 -0.133
KX1                LX         L1 -0.186
KX2                LX         L2 -0.186
KOUT               LQ       LOUT 0.432
LD                 8         9   7.440PH FCHECK
LX                11        12   7.390PH FCHECK
LIN                1        13   1.240PH FCHECK
L1                13        14   1.590PH FCHECK
L2                 5        13   1.590PH FCHECK
LOUT              15        10  31.000PH FCHECK
LQ                13         0   6.490PH FCHECK
R1                15         0   1.000POHM
B2                 5         0  JJMOD AREA=0.60
B1                14         0  JJMOD AREA=0.60
.ENDS

*** AND_IB
.SUBCKT AND_IB          1          2          8          9         10         11         12
***         A         B       DIN      DOUT         Q       XIN      XOUT
XI2               BFR          2         23          9         21         25         12
XI1            CONST0         26         23         20         24         25
XI3           BRANCH3         16         20         21         10
XI0               INV          1          8         26         16         11         24
.ENDS

*** AND_BI
.SUBCKT AND_BI          1          2          8          9         10         11         12
***         A         B       DIN      DOUT         Q       XIN      XOUT
XI1            CONST0         20         23         26         24         25
XI3           BRANCH3         16         26         21         10
XI2               INV          2         23          9         21         25         12
XI0               BFR          1          8         20         16         11         24
.ENDS

*** AND_BB
.SUBCKT AND_BB          1          2          8          9         10         11         12
***         A         B       DIN      DOUT         Q       XIN      XOUT
XI3           BRANCH3         16         27         21         10
XI1            CONST0         20         23         27         24         25
XI2               BFR          2         23          9         21         25         12
XI0               BFR          1          8         20         16         11         24
.ENDS

*** BIAS_PAIR_10UM
.SUBCKT BIAS_PAIR_10UM          1          2          3          4
***         A         B         C         D
L1                 3         4   3.730PH FCHECK
L0                 1         2   3.460PH FCHECK
C6                 4         0   0.001PF
C0                 2         0   0.001PF
.ENDS

*** BIAS_PAIR_20UM
.SUBCKT BIAS_PAIR_20UM          1          2          3          4
***         A         B         C         D
XI1        BIAS_PAIR_10UM         28          2         29          4
XI0        BIAS_PAIR_10UM          1         28          3         29
.ENDS

*** BFRL
.SUBCKT BFRL          1          8          9         10         11         12
***         A       DIN      DOUT         Q       XIN      XOUT
KXOUT              LX       LOUT 0.000
KD1                LD         L1 -0.135
KXQ                LX         LQ 0.000
KDOUT              LD       LOUT 0.000
KXD                LX         LD 0.192
KDQ                LD         LQ 0.000
KD2                LD         L2 -0.135
KX1                LX         L1 -0.187
KX2                LX         L2 -0.187
KOUT               LQ       LOUT -0.495
LD                 8         9   7.430PH FCHECK
LX                11        12   7.380PH FCHECK
LIN                1        13   1.240PH FCHECK
L1                13        14   1.590PH FCHECK
L2                 5        13   1.590PH FCHECK
LOUT              15        10  31.100PH FCHECK
LQ                13         0   7.920PH FCHECK
R1                15         0   1.000POHM
B2                 5         0  JJMOD AREA=1.00
B1                14         0  JJMOD AREA=1.00
.ENDS

*** SPL3L
.SUBCKT SPL3L          1          8          9         30         11         12         31         32
***         A       DIN      DOUT         X       XIN      XOUT         Y         Z
XI14       BIAS_PAIR_20UM         11         33          8         24
XI15       BIAS_PAIR_20UM         27         12         25          9
XI0              BFRL          1         24         25         16         33         27
XI1           BRANCH3         30         31         32         16
.ENDS

*** RISAKO_GP
.SUBCKT RISAKO_GP         34         35          1         36         37         38         39         40         41         42         43          2         44         45         46         47         48         49         50         51
***         G         P         A  AC_IN<0>  AC_IN<1>  AC_IN<2>  AC_IN<3> AC_OUT<0> AC_OUT<1> AC_OUT<2> AC_OUT<3>         B  DC_IN<0>  DC_IN<1>  DC_IN<2>  DC_IN<3> DC_OUT<0> DC_OUT<1> DC_OUT<2> DC_OUT<3>
XI5             OR_BB         13         52         53         44         35         54         36
XI567             BFR         55         50         56         57         42         58
XI6               BFR         59         48         53         34         40         54
XI568             BFR         60         56         61         62         58         63
XI569             BFR         64         61         65         66         63         67
XI570             BFR         68         65         69         70         67         71
XI579             BFR         72         69         73         74         71         75
XI580             BFR         17         73         46         76         75         38
XI116          AND_IB         74         62         77         78         13         14         79
XI115          AND_BI         76         66         45         77         52         37         14
XI117          AND_BB         70         57         78         49         59         79         41
XI1             SPL3L          2         51         80         55         43         81         60         64
XI0             SPL3L          1         80         47         68         81         39         72         17
.ENDS

*** SINK
.SUBCKT SINK          1          8          9         11         12
***         A       DIN      DOUT       XIN      XOUT
KD1                LD         L1 -0.133
KXQ                LX         LQ 0.000
KXD                LX         LD 0.190
KDQ                LD         LQ 0.000
KD2                LD         L2 -0.133
KX1                LX         L1 -0.186
KX2                LX         L2 -0.186
LD                 8         9   7.450PH FCHECK
LX                11        12   7.400PH FCHECK
LIN                1        13   1.230PH FCHECK
L1                13        14   1.590PH FCHECK
L2                 5        13   1.590PH FCHECK
LQ                13         0   7.920PH FCHECK
B2                 5         0  JJMOD AREA=0.50
B1                14         0  JJMOD AREA=0.50
.ENDS

*** TOP CELL: RISAKO_GP_TEST
XI0         RISAKO_GP         82         83         57          0         81         62         70         67         54         67         54         74         59         53         53         28         65         65         76         76
*** ("13") MAPPED TO 0
VB                77         0  PWL(0PS 0MV 20PS -5MV))
VA                69         0  PWL(0PS 0MV 20PS 5MV))
VAC2              72         0  SIN(0 81000MV 5000MEGHZ 50PS 0)
VDC               75         0  PWL(0PS 0MV 20PS 113000MV)
VAC1              66         0  SIN(0 81000MV 5000MEGHZ 100.0PS 0)
R4                77        74  1000.00OHM
R3                69        57  1000.00OHM
R2                72        62  100000.00OHM
R1                75        28  100000.00OHM
R0                66        70  100000.00OHM
XI8              SINK         82         84          0         86          0
*** ("85" "85") MAPPED TO 0
XI7              SINK         83         59         84         81         86

*** NETLIST FILE ***

*** JSIM INPUT FILE ***
.TRAN 0.1PS 1100.0PS 
.PRINT DEVI R0
.PRINT DEVI R1
.PRINT DEVI R2
.PRINT DEVI XI7_LQ
.PRINT DEVI XI8_LQ
*** JSIM INPUT FILE ***
time R0_I R1_I R2_I XI7_LQ_I XI8_LQ_I
0.000000000000000e+00 0.000000000000000e+00 0.000000000000000e+00 0.000000000000000e+00 0.000000000000000e+00 0.000000000000000e+00 
1.000000000000000e-13 -3.200312218354375e-12 5.648025149862036e-06 2.595437643032012e-15 -5.873033751020537e-16 1.864331197499051e-17 
2.000000000000000e-13 -2.511738145589811e-11 1.129432651075218e-05 3.964386078984491e-14 -9.349496622589471e-15 3.139135404925998e-16 
3.000000000000000e-13 -1.192041725322902e-10 1.693921465690538e-05 3.834251431795447e-13 -9.996353733533130e-14 3.384924129902712e-15 
4.000000000000000e-13 -3.393340955478935e-10 2.258410540732449e-05 2.341710658491608e-12 -6.881994957926516e-13 2.337105922915137e-14 
5.000000000000000e-13 -6.499475339477546e-10 2.822874784715511e-05 1.013463763037558e-11 -3.412816710082653e-12 1.163301930094474e-13 
6.000000000000000e-13 -9.062331545854073e-10 3.387452237566838e-05 3.309692760233686e-11 -1.300870587479513e-11 4.462440331103877e-13 
6.999999999999999e-13 -1.009480268233763e-09 3.952164705241819e-05 8.495374887634083e-11 -3.981278335698992e-11 1.380024116641314e-12 
7.999999999999999e-13 -1.012092214160854e-09 4.516820546220501e-05 1.768451884377687e-10 -1.011659651869712e-10 3.563559776791424e-12 
8.999999999999999e-13 -9.842280617461889e-10 5.081369490138387e-05 3.073563032746454e-10 -2.197130792174105e-10 7.922681175728065e-12 
1.000000000000000e-12 -9.214966544392938e-10 5.645907055596223e-05 4.602566887120433e-10 -4.190468384148521e-10 1.560244378891596e-11 
1.100000000000000e-12 -8.620577692164931e-10 6.210365038677754e-05 6.150310135887871e-10 -7.201338346419641e-10 2.793552344001287e-11 
1.200000000000000e-12 -8.500720071561644e-10 6.774644394895686e-05 7.589055952890725e-10 -1.140960331669238e-09 4.648578891591350e-11 
1.300000000000000e-12 -7.307477651530562e-10 7.338846382266465e-05 8.871869438117436e-10 -1.697459805718057e-09 7.308473329526838e-11 
1.400000000000000e-12 -3.122154418558522e-10 7.903010475425558e-05 9.978863000586916e-10 -2.402751589144493e-09 1.097713725808074e-10 
1.500000000000000e-12 2.587753071253555e-10 8.466978779110230e-05 1.093612407561432e-09 -3.265610800627137e-09 1.586780034916190e-10 
1.600000000000000e-12 6.152742663575382e-10 9.030760727115014e-05 1.184611420094077e-09 -4.290401586915383e-09 2.219329705632375e-10 
1.700000000000000e-12 5.732582679837216e-10 9.594600715677577e-05 1.280990046430629e-09 -5.477008828856010e-09 3.015350565108703e-10 
1.800000000000000e-12 1.729115174015079e-10 1.015859972202662e-04 1.384617433873014e-09 -6.818817961120571e-09 3.991570471405059e-10 
1.900000000000000e-12 -3.981904275553827e-10 1.072270400770389e-04 1.494626552525874e-09 -8.301358227696848e-09 5.159761604046832e-10 
2.000000000000000e-12 -7.294124951684263e-10 1.128697054725532e-04 1.614549053154862e-09 -9.904421042715631e-09 6.526088353905032e-10 
2.100000000000000e-12 -4.135747308765024e-10 1.185142979456759e-04 1.748635927244520e-09 -1.160562767642367e-08 8.090760871139767e-10 
2.200000000000000e-12 5.471699697505161e-10 1.241589517508820e-04 1.898779153127835e-09 -1.338325429017916e-08 9.847503549537020e-10 
2.300000000000000e-12 1.842712564278684e-09 1.298021324726883e-04 2.065750729514220e-09 -1.521899145055538e-08 1.178340268775562e-09 
2.400000000000000e-12 3.150557954621028e-09 1.354442087335934e-04 2.241972177196980e-09 -1.709928105603643e-08 1.387907176550679e-09 
2.500000000000000e-12 4.082791666217314e-09 1.410852992788887e-04 2.406411950646640e-09 -1.901332825268721e-08 1.610883740132717e-09 
2.600000000000000e-12 4.348543502599085e-09 1.467251926178985e-04 2.540231534240871e-09 -2.095180261951122e-08 1.844204614848101e-09 
2.700000000000000e-12 4.240437971022498e-09 1.523653447929735e-04 2.640349069452802e-09 -2.290973478624620e-08 2.084597594642529e-09 
2.800000000000000e-12 4.409289801692220e-09 1.580073913039751e-04 2.708168435367694e-09 -2.488850396055159e-08 2.328851185593938e-09 
2.900000000000000e-12 5.075905767572495e-09 1.636508563831717e-04 2.743474217657073e-09 -2.689358670401932e-08 2.573979258159589e-09 
3.000000000000000e-12 5.987763852434551e-09 1.692950378354619e-04 2.759954692857318e-09 -2.893404802527297e-08 2.817446161575315e-09 
3.100000000000000e-12 6.926031962786946e-09 1.749407676599609e-04 2.782797807922521e-09 -3.102509374789605e-08 3.057434461881750e-09 
3.200000000000000e-12 7.741683632642664e-09 1.805884034442427e-04 2.822548153130236e-09 -3.318583711707910e-08 3.292932513213385e-09 
3.300000000000000e-12 8.314542620301052e-09 1.862369532582667e-04 2.873729105529247e-09 -3.543259156098517e-08 3.523703721198500e-09 
3.400000000000000e-12 8.864494102987506e-09 1.918860548680213e-04 2.934744136349577e-09 -3.777655248886868e-08 3.750360469260816e-09 
3.500000000000000e-12 9.819803914340749e-09 1.975360233798245e-04 3.003064261390098e-09 -4.022477318940483e-08 3.974424931945869e-09 
3.600000000000000e-12 1.126347443045188e-08 2.031862019552821e-04 3.063944934653554e-09 -4.277798931305624e-08 4.198183429164983e-09 
3.700000000000000e-12 1.293482509841768e-08 2.088356884906117e-04 3.107321591374993e-09 -4.542946092788861e-08 4.424483040460931e-09 
3.800000000000000e-12 1.448201302968211e-08 2.144846825917358e-04 3.134985943171161e-09 -4.816831127668706e-08 4.656568880554009e-09 
3.900000000000000e-12 1.533910161687476e-08 2.201336120682001e-04 3.138290833909522e-09 -5.097943886305525e-08 4.897779895766335e-09 
4.000000000000000e-12 1.500979495698075e-08 2.257826606066488e-04 3.100945873182315e-09 -5.383917175446141e-08 5.151146331027788e-09 
4.100000000000000e-12 1.384538900470799e-08 2.314328430456459e-04 3.027698277249402e-09 -5.671694301814532e-08 5.419143111782548e-09 
4.200000000000000e-12 1.287472478088085e-08 2.370855070849449e-04 2.934713199904794e-09 -5.958076546160376e-08 5.703488077416905e-09 
4.300000000000000e-12 1.276736042184965e-08 2.427406669839156e-04 2.822557991775077e-09 -6.239587189989714e-08 6.004769062510649e-09 
4.400000000000000e-12 1.354715098985684e-08 2.483974364317840e-04 2.695166165673375e-09 -6.512270885573885e-08 6.322136783681709e-09 
4.500000000000000e-12 1.496922626661043e-08 2.540553397353391e-04 2.579937013977582e-09 -6.772395927542379e-08 6.653274178460838e-09 
4.600000000000000e-12 1.650962301732276e-08 2.597138884972789e-04 2.495101683865543e-09 -7.017039594967193e-08 6.994393889783603e-09 
4.700000000000000e-12 1.745151869525913e-08 2.653720697774455e-04 2.430063815062850e-09 -7.243747357728029e-08 7.340207671730088e-09 
4.800000000000000e-12 1.748752381864614e-08 2.710292493597555e-04 2.375937932196953e-09 -7.450459729049675e-08 7.684215187876595e-09 
4.900000000000000e-12 1.686011939841197e-08 2.766856214630291e-04 2.331294699964034e-09 -7.636109558080766e-08 8.019286092056992e-09 
5.000000000000000e-12 1.591736834154193e-08 2.823416048502751e-04 2.275036008850361e-09 -7.800649789943802e-08 8.338153731057083e-09 
5.100000000000000e-12 1.499067186011713e-08 2.879976745794435e-04 2.182766460627439e-09 -7.944669608899219e-08 8.633856783610240e-09 
5.200000000000000e-12 1.432575593190442e-08 2.936544082620773e-04 2.058927549868283e-09 -8.069749884705201e-08 8.900326115475717e-09 
5.300000000000000e-12 1.365582484790202e-08 2.993120219093487e-04 1.913038521042345e-09 -8.178763635797282e-08 9.132850739480964e-09 
5.400000000000000e-12 1.239684925643993e-08 3.049703794541290e-04 1.738085542683337e-09 -8.275117503346606e-08 9.328217536053358e-09 
5.500000000000000e-12 1.056049780615711e-08 3.106295537965736e-04 1.544037774899382e-09 -8.362179813074459e-08 9.484808904508711e-09 
5.600000000000000e-12 8.840172132671476e-09 3.162896411439396e-04 1.363408006362982e-09 -8.443534087528937e-08 9.602732534487313e-09 
5.700000000000000e-12 7.767265506977137e-09 3.219502570000002e-04 1.205131366947751e-09 -8.522561136199796e-08 9.683688167904749e-09 
5.800000000000000e-12 7.398268312479445e-09 3.276108421508240e-04 1.057163613828973e-09 -8.601369002864151e-08 9.730682957051014e-09 
5.899999999999999e-12 7.554273509683452e-09 3.332710099961365e-04 9.300129405474945e-10 -8.680875431111536e-08 9.747957740011792e-09 
5.999999999999999e-12 7.744070326755482e-09 3.389303160960146e-04 8.397515650951581e-10 -8.761599844998929e-08 9.740956538666384e-09 
6.099999999999999e-12 7.203569445627553e-09 3.445883225872930e-04 7.709553001408701e-10 -8.843487314334994e-08 9.716051212601647e-09 
6.199999999999999e-12 5.472096679242174e-09 3.502449135359259e-04 7.056295134111141e-10 -8.925604218062470e-08 9.680256956689338e-09 
6.299999999999999e-12 2.707816087228726e-09 3.559001653437336e-04 6.480761282792009e-10 -9.006840268647519e-08 9.641080024756494e-09 
6.399999999999999e-12 -5.128423974752545e-10 3.615544149026530e-04 5.891191545963058e-10 -9.086245086178082e-08 9.606142058597594e-09 
6.499999999999999e-12 -3.361258019523892e-09 3.672086372444196e-04 5.019213245911462e-10 -9.162407395692666e-08 9.582513490681289e-09 
6.599999999999999e-12 -5.093866033637873e-09 3.728638473315750e-04 3.875797624320406e-10 -9.233522469788428e-08 9.576139781998350e-09 
6.699999999999999e-12 -5.701435504677059e-09 3.785200630620204e-04 2.673310660540516e-10 -9.298107639383636e-08 9.591389310917214e-09 
6.799999999999999e-12 -5.900424289008218e-09 3.841766271415682e-04 1.424379061472963e-10 -9.354741777580227e-08 9.630504696220464e-09 
6.899999999999999e-12 -6.283567583032499e-09 3.898330219939717e-04 1.782578444572073e-11 -9.401584111388288e-08 9.693201986912799e-09 
6.999999999999999e-12 -6.917912863346576e-09 3.954885725990710e-04 -7.124956484747546e-11 -9.437086620832799e-08 9.776722068439395e-09 
7.099999999999999e-12 -7.735801669622130e-09 4.011422991320506e-04 -1.051836361371652e-10 -9.460528291631190e-08 9.876107332679422e-09 
7.199999999999999e-12 -8.720533642853065e-09 4.067938580824606e-04 -1.042162209768114e-10 -9.471344229628580e-08 9.984527073249855e-09 
7.300000000000000e-12 -9.739874041128000e-09 4.124437556381446e-04 -8.116606246407264e-11 -9.469030905083305e-08 1.009389989599159e-08 
7.400000000000000e-12 -1.067297825038912e-08 4.180924601116586e-04 -3.117307324930075e-11 -9.454149724507599e-08 1.019579616481165e-08 
7.500000000000000e-12 -1.163271874791198e-08 4.237403159036491e-04 2.826906432680899e-11 -9.428541032992202e-08 1.028222678919847e-08 
7.600000000000000e-12 -1.279396787995223e-08 4.293879206187137e-04 7.199568660440459e-11 -9.394780762735247e-08 1.034628173306824e-08 
7.700000000000000e-12 -1.411815811482673e-08 4.350354639185742e-04 1.066080677323690e-10 -9.356447506953379e-08 1.038281235297998e-08 
7.800000000000000e-12 -1.529531077248136e-08 4.406824388709319e-04 1.432151838521045e-10 -9.318376853008784e-08 1.038892655036125e-08 
7.900000000000000e-12 -1.579653829507078e-08 4.463288460460860e-04 1.692352567122009e-10 -9.285654828933631e-08 1.036402936277578e-08 
8.000000000000000e-12 -1.514102941315011e-08 4.519754986215563e-04 1.843138438592997e-10 -9.262750377994424e-08 1.030966958782325e-08 
8.100000000000000e-12 -1.339192365184059e-08 4.576225895200569e-04 2.110911169495852e-10 -9.253654427894692e-08 1.022943080576827e-08 
8.200000000000000e-12 -1.125065811140125e-08 4.632693778104446e-04 2.535225102015648e-10 -9.261554202440248e-08 1.012868300683055e-08 
8.300000000000000e-12 -9.471715330970960e-09 4.689153986523235e-04 3.032400393705355e-10 -9.288048018186155e-08 1.001419810868111e-08 
8.400000000000000e-12 -8.364899820114098e-09 4.745604362167120e-04 3.796725492582747e-10 -9.333554711848185e-08 9.893939236516798e-09 
8.500000000000000e-12 -7.914607063867370e-09 4.802036913134360e-04 5.046933315963098e-10 -9.398216696091949e-08 9.776952401678077e-09 
8.600000000000000e-12 -7.984877793711311e-09 4.858446280107855e-04 6.622585925572989e-10 -9.481623323962613e-08 9.673013339006346e-09 
8.700000000000000e-12 -8.211750223896934e-09 4.914840772456339e-04 8.282016754707046e-10 -9.582381374779485e-08 9.592095644494290e-09 
8.800000000000000e-12 -8.034260475108843e-09 4.971233289834938e-04 9.978463856593518e-10 -9.698748238698351e-08 9.543891881379461e-09 
8.900000000000000e-12 -7.086871508535930e-09 5.027631498126964e-04 1.157442632839860e-09 -9.829039759595933e-08 9.537256998892862e-09 
9.000000000000000e-12 -5.421849650198361e-09 5.084042764218275e-04 1.282793274894644e-09 -9.971226891272854e-08 9.579495191223920e-09 
9.100000000000000e-12 -3.296342277105059e-09 5.140471780187590e-04 1.377751590917639e-09 -1.012310688766221e-07 9.675779178069845e-09 
9.200000000000000e-12 -9.253698940659419e-10 5.196909238526794e-04 1.464868274372850e-09 -1.028294406777819e-07 9.828798806833132e-09 
9.300000000000000e-12 1.565354898559727e-09 5.253340361825874e-04 1.550111159421884e-09 -1.044922631257925e-07 1.003842826838605e-08 
9.400000000000000e-12 4.109669600991836e-09 5.309763464692148e-04 1.637534489281429e-09 -1.062016183076276e-07 1.030150127644996e-08 
9.500000000000000e-12 6.577225330288228e-09 5.366183948775328e-04 1.745242354796403e-09 -1.079399083222529e-07 1.061198397381387e-08 
9.599999999999999e-12 8.648656868226807e-09 5.422599518521873e-04 1.874838130524532e-09 -1.096918471528010e-07 1.096145309313818e-08 
9.699999999999999e-12 1.004368219900774e-08 5.479008609513494e-04 2.006265270813426e-09 -1.114407938711463e-07 1.133968154678978e-08 
9.799999999999999e-12 1.088839140687834e-08 5.535419454903765e-04 2.136281704721143e-09 -1.131723687258838e-07 1.173547489080502e-08 
9.899999999999999e-12 1.156726681664574e-08 5.591835810575524e-04 2.277339056292572e-09 -1.148847329768348e-07 1.213778128158499e-08 
9.999999999999999e-12 1.230019977231440e-08 5.648250727225834e-04 2.423214070601542e-09 -1.165901034380516e-07 1.253668097052630e-08 
1.010000000000000e-11 1.320259716089754e-08 5.704664130362139e-04 2.557369026026267e-09 -1.183091973690578e-07 1.292403388981948e-08 
1.020000000000000e-11 1.452319117725327e-08 5.761087047938505e-04 2.676610514279355e-09 -1.200698023563514e-07 1.329392389983117e-08 
1.030000000000000e-11 1.638445503634254e-08 5.817525459591457e-04 2.776209272750152e-09 -1.219046110163203e-07 1.364288072785122e-08 
1.040000000000000e-11 1.850837354402932e-08 5.873979955503338e-04 2.841617471976760e-09 -1.238427993644334e-07 1.396974294624025e-08 
1.050000000000000e-11 2.050164517481698e-08 5.930455072388640e-04 2.873029829770882e-09 -1.259046048232527e-07 1.427533495248704e-08 
1.060000000000000e-11 2.213689777644516e-08 5.986947588028276e-04 2.887370715879768e-09 -1.281020912099440e-07 1.456218245131975e-08 
1.070000000000000e-11 2.325060282084831e-08 6.043438454250774e-04 2.895750439719725e-09 -1.304378809154552e-07 1.483420051212304e-08 
1.080000000000000e-11 2.373603537802748e-08 6.099915330696691e-04 2.906893653645244e-09 -1.329031698102363e-07 1.509633689055721e-08 
1.090000000000000e-11 2.363589541556559e-08 6.156385232399355e-04 2.935529736520777e-09 -1.354811157405520e-07 1.535434075452277e-08 
1.100000000000000e-11 2.299286565964354e-08 6.212854265820759e-04 2.981688779798470e-09 -1.381497394900148e-07 1.561461075983661e-08 
1.110000000000000e-11 2.186717413533021e-08 6.269321633047398e-04 3.024429009382878e-09 -1.408802544670388e-07 1.588391960688239e-08 
1.120000000000000e-11 2.065858881286027e-08 6.325798542676840e-04 3.049389120181761e-09 -1.436391544540892e-07 1.616907100118643e-08 
1.130000000000000e-11 1.993766181930668e-08 6.382301488388738e-04 3.057203278994429e-09 -1.463956086599726e-07 1.647660459172797e-08 
1.140000000000000e-11 1.984990928058143e-08 6.438827139304944e-04 3.046297407234901e-09 -1.491247243926142e-07 1.681239190577521e-08 
1.150000000000000e-11 2.012324886141701e-08 6.495362095931079e-04 3.014194416374656e-09 -1.518057790370354e-07 1.718100934877239e-08 
1.160000000000000e-11 2.049190364317150e-08 6.551905965120545e-04 2.966529989022097e-09 -1.544212860809841e-07 1.758506515214874e-08 
1.170000000000000e-11 2.063839490065278e-08 6.608460305070071e-04 2.906196597886855e-09 -1.569550869157776e-07 1.802464474917912e-08 
1.180000000000000e-11 2.008793285233114e-08 6.665016678296822e-04 2.828912467910808e-09 -1.593878348314872e-07 1.849692146762827e-08 
1.190000000000000e-11 1.864411247651031e-08 6.721574366588475e-04 2.735706822637388e-09 -1.616955283170553e-07 1.899606347787562e-08 
1.200000000000000e-11 1.660254171941142e-08 6.778141514130624e-04 2.631323875929503e-09 -1.638519947069530e-07 1.951354439084545e-08 
1.210000000000000e-11 1.435751091960098e-08 6.834710859097696e-04 2.516462326263692e-09 -1.658312215413992e-07 2.003877781708791e-08 
1.220000000000000e-11 1.217873407256341e-08 6.891267658755960e-04 2.398517573030150e-09 -1.676116453361581e-07 2.055997605280642e-08 
1.230000000000000e-11 1.025157518109379e-08 6.947817674946950e-04 2.293347551519276e-09 -1.691833354845053e-07 2.106514689755099e-08 
1.240000000000000e-11 8.505025640021801e-09 7.004373968535917e-04 2.203846018286224e-09 -1.705504395252190e-07 2.154300171016214e-08 
1.250000000000000e-11 6.666324444840065e-09 7.060933505713848e-04 2.116818715813195e-09 -1.717270774950745e-07 2.198358168772099e-08 
1.260000000000000e-11 4.760477616267940e-09 7.117496989188546e-04 2.022784221125836e-09 -1.727343936747771e-07 2.237865123911131e-08 
1.270000000000000e-11 3.143832807130035e-09 7.174082207762176e-04 1.917920995378664e-09 -1.735996256701825e-07 2.272193073478279e-08 
1.280000000000000e-11 1.973386598902522e-09 7.230693029509692e-04 1.796108779805322e-09 -1.743523854662794e-07 2.300913137363058e-08 
1.290000000000000e-11 1.112314133072103e-09 7.287309653067461e-04 1.658446434452218e-09 -1.750210302953233e-07 2.323785007156304e-08 
1.300000000000000e-11 3.892907997975678e-10 7.343920543941490e-04 1.515776382329699e-09 -1.756322814652492e-07 2.340746045665841e-08 
1.310000000000000e-11 -5.200379173553611e-10 7.400526263645561e-04 1.372945591033126e-09 -1.762095992899592e-07 2.351903180969258e-08 