**** **** **** **** **** **** **** **** **** **** **** 
*JSIM control file for CADENCE by kameda@cq.jp.nec.com
**** **** **** **** **** **** **** **** **** **** ****

*JSIM model
**HSTP**
.model jjmod jj(Rtype=1, Vg=2.8mV, Cap=0.064pF, R0=100ohm, Rn=17ohm, Icrit=0.1mA)
**OPEN**
*.model jjmod jj(Rtype=1, Vg=2.8mV, Cap=0.218pF, R0=200ohm, Rn=17ohm, Icrit=0.1mA)


*** netlist file ***
**** **** **** **** **** **** **** ****+
*** Lib : hstp_ttanaka_lib
*** Cell: maj3_8_bit_KSA
*** View: schematic
*** Jan  6 13:06:00 2022
**** **** **** **** **** **** **** ****

*** bfr
.subckt bfr          1          2          3          4          5          6
***         a       din      dout         q       xin      xout
Kxout              Lx       Lout 0.000
Kd1                Ld         L1 -0.133
Kxq                Lx         Lq 0.000
Kdout              Ld       Lout 0.000
Kxd                Lx         Ld 0.190
Kdq                Ld         Lq 0.000
Kd2                Ld         L2 -0.133
Kx1                Lx         L1 -0.186
Kx2                Lx         L2 -0.186
Kout               Lq       Lout -0.495
Ld                 2         3   7.450pH fcheck
Lx                 5         6   7.400pH fcheck
Lin                1         7   1.230pH fcheck
L1                 7         8   1.590pH fcheck
L2                 9         7   1.590pH fcheck
Lout              10         4  31.200pH fcheck
Lq                 7         0   7.920pH fcheck
R1                10         0   1.000pohm
B2                 9         0  jjmod area=0.50
B1                 8         0  jjmod area=0.50
.ends

*** bias_pair_10um
.subckt bias_pair_10um          1         11         12         13
***         a         b         c         d
L1                12        13   3.730pH fcheck
L0                 1        11   3.460pH fcheck
*C6                13         0   0.001pF
*C0                11         0   0.001pF
.ends

*** branch2
.subckt branch2          1         11         12
***         a         b         c
Lip                9        12   0.282pH fcheck
Lp2               11        14  11.000pH fcheck
Lp1                1        15  11.000pH fcheck
R0                15         9   1.000pohm
R1                14         9   1.000pohm
.ends

*** spl2
.subckt spl2          1          2          3         16          5          6         17
***         a       din      dout         x       xin      xout         y
XI0               bfr          1         18         19         20         21         22
XI14       bias_pair_10um          5         21          2         18
XI15       bias_pair_10um         22          6         19          3
XI1           branch2         16         17         20
.ends

*** branch3
.subckt branch3          1         11         12         13
***         a         b         c         d
Lip                9        13   0.312pH fcheck
Lp3               12        14  11.800pH fcheck
Lp2               11         9  10.200pH fcheck
Lp1                1        15  11.800pH fcheck
R0                15         9   1.000pohm
R1                14         9   1.000pohm
.ends

*** bias_pair_20um
.subckt bias_pair_20um          1         11         12         13
***         a         b         c         d
XI1        bias_pair_10um         23         11         24         13
XI0        bias_pair_10um          1         23         12         24
.ends

*** spl3
.subckt spl3          1          2          3         16          5          6         17         25
***         a       din      dout         x       xin      xout         y         z
XI0               bfr          1         18         19         20         21         22
XI1           branch3         16         17         25         20
XI14       bias_pair_20um          5         21          2         18
XI15       bias_pair_20um         22          6         19          3
.ends

*** const0
.subckt const0          2          3          4          5          6
***       din      dout         q       xin      xout
Kxout              Lx       Lout -0.000
Kd1                Ld         L1 -0.128
Kxq                Lx         Lq -0.004
Kdout              Ld       Lout -0.000
Kxd                Lx         Ld 0.193
Kdq                Ld         Lq -0.005
Kd2                Ld         L2 -0.135
Kx1                Lx         L1 -0.185
Kx2                Lx         L2 -0.189
Kout               Lq       Lout -0.495
Ld                 2         3   7.490pH fcheck
Lx                 5         6   7.470pH fcheck
L1                 7         8   1.560pH fcheck
L2                 9         7   1.660pH fcheck
Lout              10         4  31.200pH fcheck
Lq                 7         0   7.820pH fcheck
R1                10         0   1.000pohm
B2                 9         0  jjmod area=0.50
B1                 8         0  jjmod area=0.50
.ends

*** and_bb
.subckt and_bb          1         11          2          3          4          5          6
***         a         b       din      dout         q       xin      xout
XI3           branch3         20         22         26          4
XI1            const0         27         28         22         18         19
XI2               bfr         11         28          3         26         19          6
XI0               bfr          1          2         27         20          5         18
.ends

*** bfrL
.subckt bfrL          1          2          3          4          5          6
***         a       din      dout         q       xin      xout
Kxout              Lx       Lout 0.000
Kd1                Ld         L1 -0.135
Kxq                Lx         Lq 0.000
Kdout              Ld       Lout 0.000
Kxd                Lx         Ld 0.192
Kdq                Ld         Lq 0.000
Kd2                Ld         L2 -0.135
Kx1                Lx         L1 -0.187
Kx2                Lx         L2 -0.187
Kout               Lq       Lout -0.495
Ld                 2         3   7.430pH fcheck
Lx                 5         6   7.380pH fcheck
Lin                1         7   1.240pH fcheck
L1                 7         8   1.590pH fcheck
L2                 9         7   1.590pH fcheck
Lout              10         4  31.100pH fcheck
Lq                 7         0   7.920pH fcheck
R1                10         0   1.000pohm
B2                 9         0  jjmod area=1.00
B1                 8         0  jjmod area=1.00
.ends

*** spl3L
.subckt spl3L          1          2          3         16          5          6         17         25
***         a       din      dout         x       xin      xout         y         z
XI14       bias_pair_20um          5         21          2         18
XI15       bias_pair_20um         22          6         19          3
XI0              bfrL          1         18         19         20         21         22
XI1           branch3         16         17         25         20
.ends

*** inv
.subckt inv          1          2          3          4          5          6
***         a       din      dout         q       xin      xout
Kxout              Lx       Lout 0.000
Kd1                Ld         L1 -0.133
Kxq                Lx         Lq 0.000
Kdout              Ld       Lout 0.000
Kxd                Lx         Ld 0.190
Kdq                Ld         Lq 0.000
Kd2                Ld         L2 -0.133
Kx1                Lx         L1 -0.186
Kx2                Lx         L2 -0.186
Kout               Lq       Lout 0.432
Ld                 2         3   7.440pH fcheck
Lx                 5         6   7.390pH fcheck
Lin                1         7   1.240pH fcheck
L1                 7         8   1.590pH fcheck
L2                 9         7   1.590pH fcheck
Lout              10         4  31.000pH fcheck
Lq                 7         0   6.490pH fcheck
R1                10         0   1.000pohm
B2                 9         0  jjmod area=0.60
B1                 8         0  jjmod area=0.60
.ends

*** maj_bbi
.subckt maj_bbi          1         11         12          2          3          4          5          6
***         a         b         c       din      dout         q       xin      xout
XI3           branch3         20         22         29          4
XI1               bfr         11         27         28         22         18         19
XI0               bfr          1          2         27         20          5         18
XI2               inv         12         28          3         29         19          6
.ends

*** maj_bbb
.subckt maj_bbb          1         11         12          2          3          4          5          6
***         a         b         c       din      dout         q       xin      xout
XI3           branch3         20         28         29          4
XI2               bfr         12         30          3         29         19          6
XI1               bfr         11         27         30         28         18         19
XI0               bfr          1          2         27         20          5         18
.ends

*** maj_ibb
.subckt maj_ibb          1         11         12          2          3          4          5          6
***         a         b         c       din      dout         q       xin      xout
XI3           branch3         20         28         29          4
XI0               inv          1          2         27         20          5         18
XI2               bfr         12         30          3         29         19          6
XI1               bfr         11         27         30         28         18         19
.ends

*** maj3_KSA_sum
.subckt maj3_KSA_sum          1         31         32         33         34         35         36         37         38         11         12         39         40         41         42         43         44         45         46         47
***         a  ac_in<0>  ac_in<1>  ac_in<2>  ac_in<3> ac_out<0> ac_out<1> ac_out<2> ac_out<3>         b         c  dc_in<0>  dc_in<1>  dc_in<2>  dc_in<3> dc_out<0> dc_out<1> dc_out<2> dc_out<3>       sum
XI7               bfr         48         49         45         50         51         37
XI17              bfr         52         53         54         55         56         57
XI3               bfr         50         58         44         59         60         36
XI13              bfr         61         62         63         64         65         66
XI14              bfr         67         41         62         68         33         65
XI15              bfr         69         63         53         23         66         56
XI9               bfr          7         54         70         71         57         72
XI8               bfr         73         70         49         74         72         51
XI4             spl3L         12         75         46          7         76         38         73         48
XI6              spl2          1         42          8         67         34         77         61
XI16             spl2         11          8         75         69         77         76         52
XI1           maj_bbi         64         55         74         78         58         79         80         60
XI0           maj_bbb         68         23         71         40         78         81         32         80
XI2           maj_ibb         81         79         59         39         43         47         31         35
.ends

*** sink
.subckt sink          1          2          3          5          6
***         a       din      dout       xin      xout
Kd1                Ld         L1 -0.133
Kxq                Lx         Lq 0.000
Kxd                Lx         Ld 0.190
Kdq                Ld         Lq 0.000
Kd2                Ld         L2 -0.133
Kx1                Lx         L1 -0.186
Kx2                Lx         L2 -0.186
Ld                 2         3   7.450pH fcheck
Lx                 5         6   7.400pH fcheck
Lin                1         7   1.230pH fcheck
L1                 7         8   1.590pH fcheck
L2                 9         7   1.590pH fcheck
Lq                 7         0   7.920pH fcheck
B2                 9         0  jjmod area=0.50
B1                 8         0  jjmod area=0.50
.ends

*** const1
.subckt const1          2          3          4          5          6
***       din      dout         q       xin      xout
L1                 5        20   0.010pH fcheck
L2                69         6   0.010pH fcheck
L3                 2        82   0.010pH fcheck
L4                83         3   0.010pH fcheck
XI0            const0         83         82          4         69         20
.ends

*** or_bb
.subckt or_bb          1         11          2          3          4          5          6
***         a         b       din      dout         q       xin      xout
XI3           branch3         20         27         26          4
XI1            const1         29         28         27         18         19
XI2               bfr         11         28          3         26         19          6
XI0               bfr          1          2         29         20          5         18
.ends

*** spl2L
.subckt spl2L          1          2          3         16          5          6         17
***         a       din      dout         x       xin      xout         y
XI1           branch2         16         17         20
XI14       bias_pair_10um          5         21          2         18
XI15       bias_pair_10um         22          6         19          3
XI0              bfrL          1         18         19         20         21         22
.ends

*** maj3_KSA_GP
.subckt maj3_KSA_GP         84         85          1         31         32         33         35         36         37         11         39         40         41         43         44         45
***         G         P         a  ac_in<0>  ac_in<1>  ac_in<2> ac_out<0> ac_out<1> ac_out<2>         b  dc_in<0>  dc_in<1>  dc_in<2> dc_out<0> dc_out<1> dc_out<2>
XI8               bfr         51         66         44         86         53         36
XI7               bfr         73         69         66         77         54         53
XI6               bfr         55         72         69         56         49         54
XI5               bfr         23         40         72          7         32         49
XI10            or_bb         56         86         67         43         85         52         35
XI4             spl2L         11         64         45         73         59         37         51
XI3             spl2L          1         41         64         23         33         59         55
XI9            and_bb          7         77         39         67         84         31         52
.ends

*** top cell: maj3_8_bit_KSA
XI1093            bfr         87         88         89         90         91         92
XI1395            bfr         75         93         94         78         95         57
XI1086            bfr         96         97         98         99        100        101
XI1085            bfr        102        103         97        104        105        100
XI1081            bfr        106        107        108        109        110        111
XI1080            bfr        112        113        114        115        116        117
XI1079            bfr        118        119        113        120        121        116
XI1078            bfr        122        123        124        125        126        127
XI1077            bfr        128        129        123        130        131        126
XI1076            bfr        132        133        134        135        136        137
XI1075            bfr        138        139        133        140        141        136
XI1074            bfr        142        143        144        145        146        147
XI1073            bfr        148        149        143        150        151        146
XI1072            bfr        152        153        154        155        156        157
XI1071            bfr        158        159        153        160        161        156
XI1062            bfr        162        163        164        165        166        167
XI1070            bfr        168        169        170        171        172        173
XI940             bfr        174        175        176        177        178        179
XI939             bfr        180        176        181        182        179        183
XI938             bfr        184        185        186        187        188        189
XI937             bfr        190        186        191        192        189        193
XI936             bfr        194        195        196        197        198        199
XI935             bfr        200        196        201        202        199        203
XI1249            bfr        204        205        206        207        208        209
XI1248            bfr        210        211        212        213        214        215
XI1247            bfr        213        216        217        204        218        219
XI1245            bfr        220        221        216        222        223        218
XI1244            bfr        224        225        211        220        226        214
XI1272            bfr        227        228        229        230        231        232
XI1271            bfr        230        233        234        235        236        237
XI1269            bfr        238        239        233        240        241        236
XI1268            bfr        242        243        228        238        244        231
XI1267            bfr        240        245        246        247        248        249
XI1057            bfr        250        251        252        253        254        255
XI1055            bfr        256        257        129        258        259        131
XI1243            bfr        222        260        205        261        262        208
XI1265            bfr        263        264        245        265        266        248
XI1052            bfr        267        268        269        270        271        272
XI1264            bfr        273        274        243        275        276        244
XI1263            bfr        275        277        239        263        278        241
XI1047            bfr        279        280        281        282        283        284
XI1090            bfr        285        286        287        288        289        290
XI1241            bfr        291        292        260        293        294        262
XI1261            bfr        295        296        277        297        298        278
XI895             bfr        299        300        301        302        303        304
XI894             bfr        305        301         88        306        304         91
XI893             bfr        307        308        309        310        311        312
XI892             bfr        313        309        314        315        312        316
XI891             bfr        317        318        319        320        321        322
XI890             bfr        323        319        324        325        322        326
XI1240            bfr        327        328        225        329        330        226
XI1239            bfr        329        331        221        291        332        223
XI1237            bfr        333        334        331        335        336        332
XI1236            bfr        337        338        328        333        339        330
XI1235            bfr        335        340        292        341        342        294
XI1260            bfr        343        344        274        295        345        276
XI1259            bfr        297        346        264        347        348        266
XI1257            bfr        349        350        346        351        352        348
XI1256            bfr        353        354        344        355        356        345
XI1255            bfr        355        357        296        349        358        298
XI1050            bfr        359        360        139        361        362        141
XI1027            bfr        363        364        365        366        367        368
XI1253            bfr        369        217        357        370        219        358
XI869             bfr        371        372        286        373        374        289
XI1233            bfr        375        376        334        377        378        336
XI1252            bfr        379        212        354        369        215        356
XI1393            bfr        380        381         54        382        383         57
XI864             bfr        384        385        386        387        388        389
XI1251            bfr        370        206        350        390        209        352
XI1225            bfr        391        392        393        394        395        396
XI1232            bfr        397        398        338        375        399        339
XI1231            bfr        377        400        340        401        402        342
XI1103            bfr        310        403        404        405        406        407
XI1102            bfr        306        408        409        410        411        412
XI1101            bfr        302        413        408        414        415        411
XI1100            bfr        373        416        417        418        419        420
XI1099            bfr        421        324        422        423        326        424
XI1084            bfr        425        426        103        427        428        105
XI1083            bfr        429        430        426        431        432        428
XI1096            bfr        433        314        434        435        316        436
XI1082            bfr        437        108        430        438        111        432
XI1119            bfr        439        440        441        442        443        444
XI1392            bfr        445        446        447        380        448        449
XI1117            bfr        366        450        451        452        453        454
XI1113            bfr        202        455        456        457        458        459
XI1112            bfr        197        460        455        461        462        458
XI1111            bfr        463        464        460        465        466        462
XI1110            bfr        192        467        464        468        469        466
XI1109            bfr        187        441        467        470        444        469
XI1037            bfr        471        472        473        474        475        476
XI833             bfr        477        478        479        480        481        482
XI831             bfr        483        484        478        485        486        481
XI1108            bfr        182        487        440        488        489        443
XI1107            bfr        177        490        487        491        492        489
XI1106            bfr        325        493        494        495        496        497
XI1105            bfr        320        498        493        499        500        496
XI1104            bfr        315        404        501        502        407        503
XI824             bfr        504        505        506        507        508        509
XI822             bfr        510        511        505        512        513        508
XI821             bfr        514        515        516        128        517        518
XI820             bfr        519        516        251        122        518        254
XI819             bfr        520        521        522        118        523        524
XI818             bfr        525        522        163        112        524        166
XI817             bfr        526        527        528        106        529        530
XI816             bfr        531        528        532        437        530        533
XI815             bfr        438        534        535        536        537        538
XI814             bfr        109        539        534        540        541        537
XI812             bfr        115        542        543        544        545        546
XI811             bfr        120        547        542        548        549        545
XI810             bfr        125        550        551        552        553        554
XI809             bfr        130        555        550        556        557        553
XI808             bfr        536        558        559        200        560        561
XI807             bfr        540        479        558        194        482        560
XI806             bfr        544        562        484        190        563        486
XI805             bfr        548        506        562        184        509        563
XI804             bfr        552        564        511        180        565        513
XI803             bfr        556        566        564        174        567        565
XI1007            bfr        568        569        566        570        571        567
XI1006            bfr        361        572        573        574        575        576
XI1005            bfr        574        577        578        579        580        581
XI1004            bfr        582        583        584        585        586        587
XI1040            bfr        588        589        159        590        591        161
XI997             bfr        592        593        577        433        594        580
XI996             bfr        595        596        583        597        598        586
XI995             bfr        597        599        600         87        601        602
XI1013            bfr        480        191        195        463        193        198
XI1012            bfr        507        181        185        439        183        188
XI1406            bfr         68        603         52        604        605          7
XI1008            bfr        258        606        555        568        607        557
XI1042            bfr        608        609        610        611        612        613
XI1000            bfr        614        615        569        421        616        571
XI999             bfr        617        618        606        614        619        607
XI998             bfr        620        621        572        592        622        575
XI1229            bfr        623        624        376        625        626        378
XI1228            bfr        627        624        398        623        628        399
XI1224            bfr        629        630        631        391        632        633
XI1014            bfr        634        201        385        635        203        388
XI1003            bfr        585        600        636        637        602        638
XI1002            bfr        590        639        640        641        642        643
XI1001            bfr        641        644        645        646        647        648
XI774             bfr        649        650        651        158        652        653
XI773             bfr        654        651        609        152        653        612
XI687             bfr        655        656        657        658        659        660
XI686             bfr        661        662        663        664        665        666
XI685             bfr         53        667        662        668        669        665
XI684             bfr        670        671        672        673        674        675
XI683             bfr        676        677        671        678        679        674
XI682             bfr        680        681        682        683        684        685
XI681             bfr        686        687        681        688        689        684
XI680             bfr        690        691        692        693        694        695
XI679             bfr        696        697        691        698        699        694
XI678             bfr        700        701        702        703        704        705
XI1394            bfr        382        706         54         75        707        708
XI737             bfr        427        709        710        711        712        713
XI1116            bfr        714        715        450        716        717        453
XI1115            bfr        387        718        719        720        721        722
XI1114            bfr        635        456        718        723        459        721
XI724             bfr        724        725        726        514        727        728
XI723             bfr        729        726        730        519        728        731
XI722             bfr        732        733        734        520        735        736
XI721             bfr        737        734        738        525        736        739
XI717             bfr        740        741        742        526        743        744
XI716             bfr        745        742        746        531        744        747
XI715             bfr        748        749        750        649        751        752
XI714             bfr        753        750        754        654        752        755
XI713             bfr        756        757        758        759        760        761
XI712             bfr        762        758        763        764        761        765
XI711             bfr        766        767        768        769        770        771
XI710             bfr        772        768        773        774        771        775
XI709             bfr        776        777        778        779        172        780
XI708             bfr        781        782        783        784        785        786
XI706             bfr        787        788        782        789        790        785
XI702             bfr        673        791        792        737        793        794
XI703             bfr        678        795        791        732        796        793