.model             jjmod                   jj(Rtype=1,  Vg=2.8mV,    Cap=0.064pF,  R0=100ohm,  Rn=17ohm,      Icrit=0.1mA)


.subckt            and_bb                  1            2            3             4           12             13                     14
*inst name         cell_name               a            b            din           dout        q              xin                    xout
XI0                bfr                     1            3            8             9           13             5
XI2                bfr                     2            11           4             10          7              14
XI3                branch3                 9            6            10            12
XI1                const0                  8            11           6             5           7
.ends


.subckt            and_bi                  1            2            3             4           12             13                     14
*inst name         cell_name               a            b            din           dout        q              xin                    xout
XI0                bfr                     1            3            8             9           13             5
XI3                branch3                 9            7            10            12
XI1                const0                  8            11           7             5           6
XI2                inv                     2            11           4             10          6              14
.ends


.subckt            and_ib                  1            2            3             4           12             13                     14
*inst name         cell_name               a            b            din           dout        q              xin                    xout
XI2                bfr                     2            11           4             10          6              14
XI3                branch3                 9            8            10            12
XI1                const0                  7            11           8             5           6
XI0                inv                     1            3            7             9           13             5
.ends


.subckt            bfr                     1            2            3             12          13             14
*inst name         cell_name               a            din          dout          q           xin            xout
B1                 9                       0            jjmod        area=0.5
B2                 5                       0            jjmod        area=0.5
Kd1                Ld                      L1           -0.133
Kd2                Ld                      L2           -0.133
Kdout              Ld                      Lout         0.0
Kdq                Ld                      Lq           0.0
Kout               Lq                      Lout         -0.495
Kx1                Lx                      L1           -0.186
Kx2                Lx                      L2           -0.186
Kxd                Lx                      Ld           0.19
Kxout              Lx                      Lout         0.0
Kxq                Lx                      Lq           0.0
L1                 8                       9            1.59pH
L2                 5                       8            1.59pH
Ld                 2                       3            7.45pH
Lin                1                       8            1.23pH
Lout               6                       12           31.2pH
Lq                 8                       0            7.92pH
Lx                 13                      14           7.4pH
R1                 6                       0            1e-12ohm
.ends


.subckt            bfrL                    1            2            3             12          13             14
*inst name         cell_name               a            din          dout          q           xin            xout
B1                 9                       0            jjmod        area=1.0
B2                 5                       0            jjmod        area=1.0
Kd1                Ld                      L1           -0.135
Kd2                Ld                      L2           -0.135
Kdout              Ld                      Lout         0.0
Kdq                Ld                      Lq           0.0
Kout               Lq                      Lout         -0.495
Kx1                Lx                      L1           -0.187
Kx2                Lx                      L2           -0.187
Kxd                Lx                      Ld           0.192
Kxout              Lx                      Lout         0.0
Kxq                Lx                      Lq           0.0
L1                 8                       9            1.59pH
L2                 5                       8            1.59pH
Ld                 2                       3            7.43pH
Lin                1                       8            1.24pH
Lout               6                       12           31.1pH
Lq                 8                       0            7.92pH
Lx                 13                      14           7.38pH
R1                 6                       0            1e-12ohm
.ends


.subckt            bias_pair_10um          1            2            3             4
*inst name         cell_name               a            b            c             d
*C0                 2                       0            0.00145pF
*C6                 4                       0            0.00144pF
L0                 1                       2            3.46pH
L1                 3                       4            3.73pH
.ends


.subckt            bias_pair_20um          1            2            3             4
*inst name         cell_name               a            b            c             d
XI0                bias_pair_10um          1            6            3             5
XI1                bias_pair_10um          6            2            5             4
.ends


.subckt            branch2                 1            2            3
*inst name         cell_name               a            b            c
Lip                6                       3            0.282pH
Lp1                1                       5            11.0pH
Lp2                2                       4            11.0pH
R0                 5                       6            1e-12ohm
R1                 4                       6            1e-12ohm
.ends


.subckt            branch3                 1            2            3             4
*inst name         cell_name               a            b            c             d
Lip                7                       4            0.312pH
Lp1                1                       6            11.8pH
Lp2                2                       7            10.2pH
Lp3                3                       5            11.8pH
R0                 6                       7            1e-12ohm
R1                 5                       7            1e-12ohm
.ends


.subckt            const0                  1            2            11            12          13
*inst name         cell_name               din          dout         q             xin         xout
B1                 8                       0            jjmod        area=0.5
B2                 4                       0            jjmod        area=0.5
Kd1                Ld                      L1           -0.128
Kd2                Ld                      L2           -0.135
Kdout              Ld                      Lout         -0.000253
Kdq                Ld                      Lq           -0.00468
Kout               Lq                      Lout         -0.495
Kx1                Lx                      L1           -0.185
Kx2                Lx                      L2           -0.189
Kxd                Lx                      Ld           0.193
Kxout              Lx                      Lout         -7.94e-05
Kxq                Lx                      Lq           -0.00421
L1                 7                       8            1.56pH
L2                 4                       7            1.66pH
Ld                 1                       2            7.49pH
Lout               5                       11           31.2pH
Lq                 7                       0            7.82pH
Lx                 12                      13           7.47pH
R1                 5                       0            1e-12ohm
.ends


.subckt            const1                  1            2            7             8           9
*inst name         cell_name               din          dout         q             xin         xout
L1                 8                       4            0.01pH
L2                 6                       9            0.01pH
L3                 1                       3            0.01pH
L4                 5                       2            0.01pH
XI0                const0                  5            3            7             6           4
.ends


.subckt            inv                     1            2            3             12          13             14
*inst name         cell_name               a            din          dout          q           xin            xout
B1                 9                       0            jjmod        area=0.6
B2                 5                       0            jjmod        area=0.6
Kd1                Ld                      L1           -0.133
Kd2                Ld                      L2           -0.133
Kdout              Ld                      Lout         0.0
Kdq                Ld                      Lq           0.0
Kout               Lq                      Lout         0.432
Kx1                Lx                      L1           -0.186
Kx2                Lx                      L2           -0.186
Kxd                Lx                      Ld           0.19
Kxout              Lx                      Lout         0.0
Kxq                Lx                      Lq           0.0
L1                 8                       9            1.59pH
L2                 5                       8            1.59pH
Ld                 2                       3            7.44pH
Lin                1                       8            1.24pH
Lout               6                       12           31.0pH
Lq                 8                       0            6.49pH
Lx                 13                      14           7.39pH
R1                 6                       0            1e-12ohm
.ends


.subckt            or_bb                   1            2            3             4           12             13                     14
*inst name         cell_name               a            b            din           dout        q              xin                    xout
XI0                bfr                     1            3            8             9           13             5
XI2                bfr                     2            11           4             10          6              14
XI3                branch3                 9            7            10            12
XI1                const1                  8            11           7             5           6
.ends


.subckt            sink                    1            2            3             10          11
*inst name         cell_name               a            din          dout          xin         xout
B1                 8                       0            jjmod        area=0.5
B2                 5                       0            jjmod        area=0.5
Kd1                Ld                      L1           -0.133
Kd2                Ld                      L2           -0.133
Kdq                Ld                      Lq           0.0
Kx1                Lx                      L1           -0.186
Kx2                Lx                      L2           -0.186
Kxd                Lx                      Ld           0.19
Kxq                Lx                      Lq           0.0
L1                 7                       8            1.59pH
L2                 5                       7            1.59pH
Ld                 2                       3            7.45pH
Lin                1                       7            1.23pH
Lq                 7                       0            7.92pH
Lx                 10                      11           7.4pH
.ends


.subckt            spl2                    1            2            3             9           10             11                     12
*inst name         cell_name               a            din          dout          x           xin            xout                   y
XI0                bfr                     1            4            6             7           8              5
XI14               bias_pair_10um          10           8            2             4
XI15               bias_pair_10um          5            11           6             3
XI1                branch2                 9            12           7
.ends


.subckt            spl3L                   1            2            3             9           10             11                     12         13
*inst name         cell_name               a            din          dout          x           xin            xout                   y          z
XI0                bfrL                    1            4            6             7           8              5
XI14               bias_pair_20um          10           8            2             4
XI15               bias_pair_20um          5            11           6             3
XI1                branch3                 9            12           13            7
.ends


.subckt            maj_1bbbb_2_left        1            2            3             4           5              6                      20         21         22
*inst name         cell_name               a            b            c             d           din            dout                   q          xin        xout
XI0                bfr                     1            19           17            10          11             7
XI1                bfr                     2            17           18            13          7              9
XI2                bfr                     3            18           12            15          9              16
XI7                bfr                     4            12           6             14          16             22
XI8                branch5to1_5            8            10           13            15          14             20
XI9                const1                  5            19           8             21          11
.ends


.subckt            maj_1bbbb_2_right       1            2            3             4           5              6                      20         21         22
*inst name         cell_name               a            b            c             d           din            dout                   q          xin        xout
XI0                bfr                     1            19           17            10          11             7
XI1                bfr                     2            17           18            13          7              9
XI2                bfr                     3            18           12            15          9              16
XI7                bfr                     4            12           6             14          16             22
XI8                branch5to1_5            8            10           13            15          14             20
XI9                const1                  19           5            8             11          21
.ends


.subckt            risako_GP_ene_opt       1            2            3             4           5              6                      7          8          9          10        11        12         13         14         15         16
*inst name         cell_name               G            P            a             ac_in<0>    ac_in<1>       ac_in<2>               ac_out<0>  ac_out<1>  ac_out<2>  b         dc_in<0>  dc_in<1>   dc_in<2>   dc_out<0>  dc_out<1>  dc_out<2>
XI117              and_bb                  31           28           27            12          20             26                     5
XI116              and_bi                  30           33           15            23          25             8                      29
XI115              and_ib                  24           32           23            27          17             29                     26
XI2                bfr                     20           21           11            1           22             4
XI5                or_bb                   17           25           21            14          2              22                     7
XI0                spl3L                   3            19           13            33          18             6                      32         28
XI1                spl3L                   10           16           19            30          9              18                     24         31
.ends


.subckt            risako_SUM_ene_opt      1            2            3             4           5              6                      7          8          9          10        11        12         13         14         25
*inst name         cell_name               Carry        P            ac_in<0>      ac_in<1>    ac_in<2>       ac_out<0>              ac_out<1>  ac_out<2>  dc_in<0>   dc_in<1>  dc_in<2>  dc_out<0>  dc_out<1>  dc_out<2>  sum
XI533              and_bi                  23           15           20            10          19             17                     4
XI543              and_ib                  21           22           13            20          24             7                      17
XI552              or_bb                   19           24           9             12          25             3                      6
XI0                spl2                    1            11           18            15          5              16                     22
XI1                spl2                    2            18           14            23          16             8                      21
.ends


.subckt            branch5to1_5            1            2            3             4           5              6
*inst name         cell_name               a            b            c             d           e              f
L0                 8                       6            0.665pH
L1                 1                       10           26.7pH
L2                 2                       7            24.9pH
L3                 3                       8            22.9pH
L4                 4                       9            24.9pH
L5                 5                       11           26.8pH
R0                 7                       10           1e-12ohm
R1                 8                       7            1e-12ohm
R2                 9                       8            1e-12ohm
R3                 11                      9            1e-12ohm
.ends


*this is top cell  maj5_8_bit_KSA_ene_opt
R10                805                     916          1000.0ohm
R11                807                     29           1000.0ohm
R12                809                     973          1000.0ohm
R13                814                     35           1000.0ohm
R14                818                     1017         1000.0ohm
R15                821                     1083         1000.0ohm
R16                828                     1074         1000.0ohm
R17                1105                    1064         1000.0ohm
R18                1137                    1069         1000.0ohm
R3                 746                     670          1000.0ohm
R4                 751                     659          1000.0ohm
R5                 754                     11           1000.0ohm
R6                 766                     749          1000.0ohm
R7                 781                     849          1000.0ohm
R8                 783                     843          1000.0ohm
R9                 789                     22           1000.0ohm
Rac1               1089                    1147         100000.0ohm
Rac2               650                     1150         100000.0ohm
Rdc                1098                    1094         100000.0ohm
V10                805                     0            PWL          (0ps          0mv         20ps           {{input[11]}})
V11                807                     0            PWL          (0ps          0mv         20ps           {{input[4]}})
V12                809                     0            PWL          (0ps          0mv         20ps           {{input[12]}})
V13                814                     0            PWL          (0ps          0mv         20ps           {{input[5]}})
V14                818                     0            PWL          (0ps          0mv         20ps           {{input[13]}})
V15                821                     0            PWL          (0ps          0mv         20ps           {{input[6]}})
V16                828                     0            PWL          (0ps          0mv         20ps           {{input[14]}})
V17                1105                    0            PWL          (0ps          0mv         20ps           {{input[7]}})
V18                1137                    0            PWL          (0ps          0mv         20ps           {{input[15]}})
V3                 746                     0            PWL          (0ps          0mv         20ps           {{input[0]}})
V4                 751                     0            PWL          (0ps          0mv         20ps           {{input[8]}})
V5                 754                     0            PWL          (0ps          0mv         20ps           {{input[1]}})
V6                 766                     0            PWL          (0ps          0mv         20ps           {{input[9]}})
V7                 781                     0            PWL          (0ps          0mv         20ps           {{input[2]}})
V8                 783                     0            PWL          (0ps          0mv         20ps           {{input[10]}})
V9                 789                     0            PWL          (0ps          0mv         20ps           {{input[3]}})
VDC                1098                    0            PWL          (0ps          0mV         20ps           113000mV)
VAC1               1089                    0            SIN          (0            81000mV     {{freq}}MEGHz  {{40+period|int/4}}ps  0)
VAC2               650                     0            SIN          (0            81000mV     {{freq}}MEGHz  40ps                   0)
XI24               and_bb                  597          646          874           578         810            868                    577
XI26               and_bb                  573          647          866           572         774            867                    571
XI28               and_bb                  576          748          952           575         856            953                    574
XI30               and_bb                  582          649          875           581         855            876                    579
XI32               and_bb                  105          567          879           593         853            878                    592
XI33               and_bb                  437          804          1019          327         904            1020                   326
XI35               and_bb                  435          817          1022          338         908            1021                   337
XI37               and_bb                  434          765          1028          301         873            1027                   300
XI39               and_bb                  405          780          1031          316         884            1029                   315
XI777              and_bb                  596          644          880           595         785            881                    594
XI112              bfr                     799          423          802           804         422            801
XI114              bfr                     812          802          290           815         801            289
XI115              bfr                     786          407          791           817         406            790
XI117              bfr                     787          791          295           673         790            294
XI118              bfr                     792          441          794           796         440            793
XI120              bfr                     798          794          450           829         793            449
XI130              bfr                     884          466          311           885         465            310
XI131              bfr                     885          464          320           887         463            319
XI132              bfr                     888          340          890           891         339            889
XI134              bfr                     894          890          346           895         889            345
XI135              bfr                     896          344          898           900         343            897
XI137              bfr                     901          898          368           902         897            367
XI138              bfr                     904          456          331           905         455            330
XI139              bfr                     9            640          556           636         639            1121
XI140              bfr                     905          454          324           906         453            323
XI141              bfr                     908          452          335           909         451            334
XI142              bfr                     909          459          342           911         457            341
XI143              bfr                     912          366          914           915         365            913
XI145              bfr                     918          914          474           919         913            473
XI146              bfr                     920          476          922           924         475            921
XI148              bfr                     926          922          483           928         921            482
XI149              bfr                     726          362          485           917         361            484
XI150              bfr                     829          490          487           925         488            486
XI162              bfr                     1042         417          445           30          416            442
XI163              bfr                     30           419          441           36          418            440
XI164              bfr                     1013         547          545           797         546            543
XI168              bfr                     36           485          490           52          484            488
XI169              bfr                     52           472          481           58          471            477
XI170              bfr                     58           474          476           63          473            475
XI171              bfr                     1015         545          549           41          543            548
XI172              bfr                     41           444          39            45          443            550
XI173              bfr                     45           450          39            50          449            548
XI174              bfr                     50           487          48            68          486            551
XI175              bfr                     68           480          48            72          479            246
XI176              bfr                     72           483          103           78          482            551
XI179              bfr                     1034         87           496           84          467            495
XI180              bfr                     84           82           499           80          85             501
XI181              bfr                     80           82           1058          700         1145           1059
XI183              bfr                     895          386          384           1102        385            383
XI184              bfr                     902          239          236           1117        237            235
XI185              bfr                     928          669          241           4           1              240
XI186              bfr                     919          245          243           1132        244            242
XI187              bfr                     78           241          103           24          240            246
XI188              bfr                     107          251          249           108         250            248
XI189              bfr                     109          255          253           111         254            252
XI190              bfr                     112          260          257           113         259            256
XI191              bfr                     114          264          262           116         263            261
XI192              bfr                     117          268          266           118         267            265
XI193              bfr                     119          273          271           121         272            270
XI194              bfr                     108          277          275           122         276            274
XI195              bfr                     111          282          279           123         281            278