.model             jjmod              jj(Rtype=1,  Vg=2.8mV,    Cap=0.064pF,       R0=100ohm,  Rn=17ohm,      Icrit=0.1mA)


.subckt            bfr                1            2            3                  12          13             14
*inst name         cell_name          a            din          dout               q           xin            xout
B1                 9                  0            jjmod        area=0.5
B2                 5                  0            jjmod        area=0.5
Kd1                Ld                 L1           -0.133
Kd2                Ld                 L2           -0.133
Kdout              Ld                 Lout         0.0
Kdq                Ld                 Lq           0.0
Kout               Lq                 Lout         -0.495
Kx1                Lx                 L1           -0.186
Kx2                Lx                 L2           -0.186
Kxd                Lx                 Ld           0.19
Kxout              Lx                 Lout         0.0
Kxq                Lx                 Lq           0.0
L1                 8                  9            1.59pH
L2                 5                  8            1.59pH
Ld                 2                  3            7.45pH
Lin                1                  8            1.23pH
Lout               6                  12           31.2pH
Lq                 8                  0            7.92pH
Lx                 13                 14           7.4pH
R1                 6                  0            1e-12ohm
.ends


.subckt            bias_pair_10um     1            2            3                  4
*inst name         cell_name          a            b            c                  d
*C0                 2                  0            0.00145pF
*C6                 4                  0            0.00144pF
L0                 1                  2            3.46pH
L1                 3                  4            3.73pH
.ends


.subckt            branch2            1            2            3
*inst name         cell_name          a            b            c
Lip                6                  3            0.282pH
Lp1                1                  5            11.0pH
Lp2                2                  4            11.0pH
R0                 5                  6            1e-12ohm
R1                 4                  6            1e-12ohm
.ends


.subckt            spl2               1            2            3                  9           10             11                     12
*inst name         cell_name          a            din          dout               x           xin            xout                   y
XI0                bfr                1            4            6                  7           8              5
XI14               bias_pair_10um     10           8            2                  4
XI15               bias_pair_10um     5            11           6                  3
XI1                branch2            9            12           7
.ends


.subckt            branch3            1            2            3                  4
*inst name         cell_name          a            b            c                  d
Lip                7                  4            0.312pH
Lp1                1                  6            11.8pH
Lp2                2                  7            10.2pH
Lp3                3                  5            11.8pH
R0                 6                  7            1e-12ohm
R1                 5                  7            1e-12ohm
.ends


.subckt            inv                1            2            3                  12          13             14
*inst name         cell_name          a            din          dout               q           xin            xout
B1                 9                  0            jjmod        area=0.6
B2                 5                  0            jjmod        area=0.6
Kd1                Ld                 L1           -0.133
Kd2                Ld                 L2           -0.133
Kdout              Ld                 Lout         0.0
Kdq                Ld                 Lq           0.0
Kout               Lq                 Lout         0.432
Kx1                Lx                 L1           -0.186
Kx2                Lx                 L2           -0.186
Kxd                Lx                 Ld           0.19
Kxout              Lx                 Lout         0.0
Kxq                Lx                 Lq           0.0
L1                 8                  9            1.59pH
L2                 5                  8            1.59pH
Ld                 2                  3            7.44pH
Lin                1                  8            1.24pH
Lout               6                  12           31.0pH
Lq                 8                  0            6.49pH
Lx                 13                 14           7.39pH
R1                 6                  0            1e-12ohm
.ends


.subckt            maj_bbi            1            2            3                  4           5              13                     14    15
*inst name         cell_name          a            b            c                  din         dout           q                      xin   xout
XI0                bfr                1            4            9                  11          14             6
XI1                bfr                2            9            12                 7           6              8
XI3                branch3            11           7            10                 13
XI2                inv                3            12           5                  10          8              15
.ends


.subckt            bias_pair_20um     1            2            3                  4
*inst name         cell_name          a            b            c                  d
XI0                bias_pair_10um     1            6            3                  5
XI1                bias_pair_10um     6            2            5                  4
.ends


.subckt            bfrL               1            2            3                  12          13             14
*inst name         cell_name          a            din          dout               q           xin            xout
B1                 9                  0            jjmod        area=1.0
B2                 5                  0            jjmod        area=1.0
Kd1                Ld                 L1           -0.135
Kd2                Ld                 L2           -0.135
Kdout              Ld                 Lout         0.0
Kdq                Ld                 Lq           0.0
Kout               Lq                 Lout         -0.495
Kx1                Lx                 L1           -0.187
Kx2                Lx                 L2           -0.187
Kxd                Lx                 Ld           0.192
Kxout              Lx                 Lout         0.0
Kxq                Lx                 Lq           0.0
L1                 8                  9            1.59pH
L2                 5                  8            1.59pH
Ld                 2                  3            7.43pH
Lin                1                  8            1.24pH
Lout               6                  12           31.1pH
Lq                 8                  0            7.92pH
Lx                 13                 14           7.38pH
R1                 6                  0            1e-12ohm
.ends


.subckt            spl3L              1            2            3                  9           10             11                     12    13
*inst name         cell_name          a            din          dout               x           xin            xout                   y     z
XI0                bfrL               1            4            6                  7           8              5
XI14               bias_pair_20um     10           8            2                  4
XI15               bias_pair_20um     5            11           6                  3
XI1                branch3            9            12           13                 7
.ends


.subckt            maj_bib            1            2            3                  4           5              13                     14    15
*inst name         cell_name          a            b            c                  din         dout           q                      xin   xout
XI0                bfr                1            4            9                  11          14             6
XI2                bfr                3            7            5                  10          8              15
XI3                branch3            11           12           10                 13
XI1                inv                2            9            7                  12          6              8
.ends


.subckt            maj_ibb            1            2            3                  4           5              13                     14    15
*inst name         cell_name          a            b            c                  din         dout           q                      xin   xout
XI1                bfr                2            8            10                 12          6              7
XI2                bfr                3            10           5                  9           7              15
XI3                branch3            11           12           9                  13
XI0                inv                1            4            8                  11          14             6
.ends


.subckt            maj_bbb            1            2            3                  4           5              13                     14    15
*inst name         cell_name          a            b            c                  din         dout           q                      xin   xout
XI0                bfr                1            4            8                  11          14             6
XI1                bfr                2            8            10                 12          6              7
XI2                bfr                3            10           5                  9           7              15
XI3                branch3            11           12           9                  13
.ends


.subckt            sink               1            2            3                  10          11
*inst name         cell_name          a            din          dout               xin         xout
B1                 8                  0            jjmod        area=0.5
B2                 5                  0            jjmod        area=0.5
Kd1                Ld                 L1           -0.133
Kd2                Ld                 L2           -0.133
Kdq                Ld                 Lq           0.0
Kx1                Lx                 L1           -0.186
Kx2                Lx                 L2           -0.186
Kxd                Lx                 Ld           0.19
Kxq                Lx                 Lq           0.0
L1                 7                  8            1.59pH
L2                 5                  7            1.59pH
Ld                 2                  3            7.45pH
Lin                1                  7            1.23pH
Lq                 7                  0            7.92pH
Lx                 10                 11           7.4pH
.ends


*this is top cell  8bit_RCA_ene_opt
R10                994                335          1000.0ohm
R11                653                536          1000.0ohm
R12                446                743          1000.0ohm
R13                669                582          1000.0ohm
R14                740                610          1000.0ohm
R15                730                729          1000.0ohm
R16                509                727          1000.0ohm
R17                726                734          1000.0ohm
R19                354                778          1000.0ohm
R2                 935                1109         1000.0ohm
R3                 999                1017         1000.0ohm
R4                 980                826          1000.0ohm
R5                 978                831          1000.0ohm
R6                 981                1116         1000.0ohm
R7                 989                1137         1000.0ohm
R8                 864                1100         1000.0ohm
R9                 851                1129         1000.0ohm
Rac1               986                435          100000.0ohm
Rac2               974                19           100000.0ohm
Rdc1               1004               522          100000.0ohm
V10                994                0            CUS          (inputs/input_vec_4.csv   200ps       20mV           0)
V11                653                0            CUS          (inputs/input_vec_12.csv  200ps       20mV           0)
V12                446                0            CUS          (inputs/input_vec_5.csv   200ps       20mV           0)
V13                669                0            CUS          (inputs/input_vec_13.csv  200ps       20mV           0)
V14                740                0            CUS          (inputs/input_vec_6.csv   200ps       20mV           0)
V15                730                0            CUS          (inputs/input_vec_14.csv  200ps       20mV           0)
V16                509                0            CUS          (inputs/input_vec_7.csv   200ps       20mV           0)
V17                726                0            CUS          (inputs/input_vec_15.csv  200ps       20mV           0)
V19                354                0            PWL          (0ps               0mV         20ps           -20mV)
V20                935                0            CUS          (inputs/input_vec_0.csv   200ps       20mV           0)
V3                 999                0            CUS          (inputs/input_vec_8.csv   200ps       20mV           0)
V4                 980                0            CUS          (inputs/input_vec_1.csv   200ps       20mV           0)
V5                 978                0            CUS          (inputs/input_vec_9.csv   200ps       20mV           0)
V6                 981                0            CUS          (inputs/input_vec_2.csv   200ps       20mV           0)
V7                 989                0            CUS          (inputs/input_vec_10.csv  200ps       20mV           0)
V8                 864                0            CUS          (inputs/input_vec_3.csv   200ps       20mV           0)
V9                 851                0            CUS          (inputs/input_vec_11.csv  200ps       20mV           0)
VDC                1004               0            PWL          (0ps               0mV         20ps           113000mV)
VAC1               986                0            SIN          (0                 81000mV     5000MEGHz  90.0ps  0)
VAC2               974                0            SIN          (0                 81000mV     5000MEGHz  40ps                   0)
XI100              bfr                1047         394          327                1128        369            1068
XI101              bfr                138          1026         394                552         321            369
XI102              bfr                1106         1150         1026               1112        320            321
XI103              bfr                1056         375          872                162         1113           366
XI104              bfr                1117         372          375                289         370            1113
XI105              bfr                1043         319          372                1071        318            370
XI106              bfr                243          384          319                1047        383            318
XI107              bfr                1139         1059         384                138         1081           383
XI108              bfr                1121         367          1059               1106        1153           1081
XI109              bfr                1038         1076         1127               92          323            336
XI110              bfr                266          324          1076               120         390            323
XI111              bfr                270          1104         324                705         389            390
XI112              bfr                1128         906          1104               32          377            389
XI113              bfr                552          1107         906                173         1028           377
XI114              bfr                1112         396          1107               247         1156           1028
XI117              bfr                1205         1006         392                712         391            337
XI118              bfr                712          951          350                944         643            348
XI119              bfr                1020         392          967                959         337            1057
XI120              bfr                783          998          955                1020        342            343
XI121              bfr                959          350          1015               1025        348            1083
XI122              bfr                1208         1050         707                783         351            946
XI123              bfr                1143         967          358                1077        1057           1124
XI124              bfr                1077         1015         358                1103        1083           563
XI125              bfr                179          707          947                61          946            1154
XI126              bfr                1209         953          957                119         1002           1154
XI127              bfr                61           955          947                1143        343            958
XI128              bfr                119          360          957                179         359            958
XI129              bfr                32           38           386                328         961            385
XI130              bfr                705          386          971                361         385            54
XI131              bfr                92           345          706                238         346            85
XI132              bfr                120          971          345                291         54             346
XI133              bfr                696          347          275                701         972            258
XI134              bfr                173          376          38                 696         352            961
XI135              bfr                361          379          1016               441         380            355
XI136              bfr                441          301          215                584         210            220
XI137              bfr                247          253          376                668         64             352
XI138              bfr                291          1016         506                1206        355            356
XI139              bfr                238          506          493                1207        356            697
XI140              bfr                584          1014         1012               1204        1011           541
XI141              bfr                516          1010         1014               1203        322            1011
XI142              bfr                713          423          1003               1200        134            340
XI143              bfr                715          1003         695                1201        340            1048
XI144              bfr                708          115          374                713         331            373
XI145              bfr                710          374          835                715         373            898
XI146              bfr                702          365          344                708         407            987
XI147              bfr                698          295          363                702         41             349
XI148              bfr                701          363          332                703         349            333
XI149              bfr                703          344          1010               710         987            322
XI150              bfr                393          332          301                516         333            210
XI151              bfr                668          47           347                698         339            972
XI152              bfr                328          275          379                393         258            380
XI156              bfr                679          1146         277                645         284            285
XI157              bfr                583          283          280                629         279            281
XI158              bfr                645          634          274                583         278            272
XI165              bfr                539          277          276                460         285            265
XI166              bfr                915          280          264                777         281            262
XI167              bfr                460          274          261                915         272            273
XI168              bfr                470          271          259                484         1001           256
XI169              bfr                484          269          268                539         666            252
XI172              bfr                449          276          267                489         265            250
XI173              bfr                652          264          249                780         262            263
XI174              bfr                489          261          260                652         273            245
XI175              bfr                450          259          257                429         256            244
XI176              bfr                461          255          241                450         1040           239
XI177              bfr                429          268          254                449         252            242
XI179              bfr                618          267          763                459         250            251
XI180              bfr                440          249          248                782         263            750
XI181              bfr                459          260          246                440         245            767
XI182              bfr                572          257          1089               483         244            642
XI183              bfr                483          254          1085               618         242            1082
XI184              bfr                413          241          1053               572         239            240
XI186              bfr                588          235          229                397         209            227
XI187              bfr                397          661          237                400         236            231
XI188              bfr                468          235          233                588         236            234
XI190              bfr                388          237          677                382         231            1035
XI191              bfr                682          233          226                378         234            230
XI192              bfr                378          229          965                388         227            228
XI194              bfr                368          226          224                371         230            223
XI200              bfr                575          224          1034               692         223            1033
XI212              bfr                604          222          221                461         481            219
XI220              bfr                197          221          1055               413         219            451
XI221              bfr                684          1031         217                197         1032           218
XI222              bfr                189          216          214                684         445            659
XI226              bfr                167          212          204                491         213            202
XI227              bfr                491          212          211                468         209            200
XI228              bfr                2            208          206                167         205            207
XI229              bfr                512          204          192                457         202            203
XI230              bfr                555          206          195                512         207            193
XI231              bfr                457          211          201                682         200            196
XI232              bfr                150          201          198                368         196            199
XI233              bfr                1175         195          194                146         193            186
XI234              bfr                146          192          190                150         203            191
XI235              bfr                135          190          182                462         191            188
XI236              bfr                462          198          631                575         199            187
XI237              bfr                1169         194          185                135         186            183
XI238              bfr                665          185          176                601         183            184
XI239              bfr                601          182          181                128         188            177
XI240              bfr                114          181          589                109         177            178
XI241              bfr                656          176          175                114         184            942
XI249              bfr                1196         208          169                2           213            174
XI250              bfr                472          172          170                1196        205            171
XI251              bfr                1182         169          168                555         174            161
XI252              bfr                598          170          166                1182        171            164
XI253              bfr                1078         166          165                1171        164            155
XI254              bfr                1171         168          163                1175        161            158
XI255              bfr                1162         163          159                1169        158            160
XI256              bfr                1063         165          156                1162        155            157
XI257              bfr                597          156          153                1147        157            154
XI258              bfr                1147         159          151                665         160            152
XI259              bfr                580          151          147                656         152            145
XI260              bfr                1039         153          144                580         154            141
XI261              bfr                647          149          1060               1110        148            838
XI262              bfr                1126         147          149                1131        145            148
XI263              bfr                624          144          142                1126        141            143
XI264              bfr                549          142          139                647         143            140
XI265              bfr                1098         172          137                472         98             118
XI266              bfr                1021         130          136                624         131            133
XI267              bfr                529          136          423                549         133            134
XI268              bfr                1044         132          130                1039        129            131
XI269              bfr                1046         124          132                597         127            129
XI270              bfr                557          126          124                1063        122            127
XI271              bfr                623          123          126                1078        121            122
XI272              bfr                617          137          123                598         118            121
XI273              bfr                553          101          116                1021        117            113
XI274              bfr                821          116          115                529         113            331
XI275              bfr                1007         99           111                1098        36             112
XI276              bfr                993          111          110                617         112            107
XI277              bfr                983          110          106                623         107            108
XI278              bfr                975          106          105                557         108            102
XI279              bfr                960          105          104                1046        102            100
XI280              bfr                936          104          101                1044        100            117