.model             jjmod              jj(Rtype=1,  Vg=2.8mV,    Cap=0.064pF,  R0=100ohm,  Rn=17ohm,      Icrit=0.1mA)


.subckt            and_bb             1            2            3             4           12             13               14
*inst name         cell_name          a            b            din           dout        q              xin              xout
XI3                branch3            9            6            10            12
XI1                const0             8            11           6             5           7
XI2                bfr                2            11           4             10          7              14
XI0                bfr                1            3            8             9           13             5
.ends


.subckt            and_bi             1            2            3             4           12             13               14
*inst name         cell_name          a            b            din           dout        q              xin              xout
XI1                const0             8            11           7             5           6
XI3                branch3            9            7            10            12
XI2                inv                2            11           4             10          6              14
XI0                bfr                1            3            8             9           13             5
.ends


.subckt            and_ib             1            2            3             4           12             13               14
*inst name         cell_name          a            b            din           dout        q              xin              xout
XI2                bfr                2            11           4             10          6              14
XI1                const0             7            11           8             5           6
XI3                branch3            9            8            10            12
XI0                inv                1            3            7             9           13             5
.ends


.subckt            bfr                1            2            3             12          13             14
*inst name         cell_name          a            din          dout          q           xin            xout
Kxout              Lx                 Lout         0.0
Kd1                Ld                 L1           -0.133
Kxq                Lx                 Lq           0.0
Kdout              Ld                 Lout         0.0
Kxd                Lx                 Ld           0.19
Kdq                Ld                 Lq           0.0
Kd2                Ld                 L2           -0.133
Kx1                Lx                 L1           -0.186
Kx2                Lx                 L2           -0.186
Kout               Lq                 Lout         -0.495
Ld                 2                  3            7.45pH
Lx                 13                 14           7.4pH
Lin                1                  8            1.23pH
L1                 8                  9            1.59pH
L2                 5                  8            1.59pH
Lout               6                  12           31.2pH
Lq                 8                  0            7.92pH
R1                 6                  0            1e-12ohm
B2                 5                  0            jjmod        area=0.5
B1                 9                  0            jjmod        area=0.5
.ends


.subckt            bfrL               1            2            3             12          13             14
*inst name         cell_name          a            din          dout          q           xin            xout
Kxout              Lx                 Lout         0.0
Kd1                Ld                 L1           -0.135
Kxq                Lx                 Lq           0.0
Kdout              Ld                 Lout         0.0
Kxd                Lx                 Ld           0.192
Kdq                Ld                 Lq           0.0
Kd2                Ld                 L2           -0.135
Kx1                Lx                 L1           -0.187
Kx2                Lx                 L2           -0.187
Kout               Lq                 Lout         -0.495
Ld                 2                  3            7.43pH
Lx                 13                 14           7.38pH
Lin                1                  8            1.24pH
L1                 8                  9            1.59pH
L2                 5                  8            1.59pH
Lout               6                  12           31.1pH
Lq                 8                  0            7.92pH
R1                 6                  0            1e-12ohm
B2                 5                  0            jjmod        area=1.0
B1                 9                  0            jjmod        area=1.0
.ends


.subckt            bias_pair_10um     1            2            3             4
*inst name         cell_name          a            b            c             d
L1                 3                  4            3.73pH
L0                 1                  2            3.46pH
*C6                 4                  0            0.00144pF
*C0                 2                  0            0.00145pF
.ends


.subckt            bias_pair_20um     1            2            3             4
*inst name         cell_name          a            b            c             d
XI1                bias_pair_10um     6            2            5             4
XI0                bias_pair_10um     1            6            3             5
.ends


.subckt            branch2            1            2            3
*inst name         cell_name          a            b            c
Lip                6                  3            0.282pH
Lp2                2                  4            11.0pH
Lp1                1                  5            11.0pH
R0                 5                  6            1e-12ohm
R1                 4                  6            1e-12ohm
.ends


.subckt            branch3            1            2            3             4
*inst name         cell_name          a            b            c             d
Lip                7                  4            0.312pH
Lp3                3                  5            11.8pH
Lp2                2                  7            10.2pH
Lp1                1                  6            11.8pH
R0                 6                  7            1e-12ohm
R1                 5                  7            1e-12ohm
.ends


.subckt            const0             1            2            11            12          13
*inst name         cell_name          din          dout         q             xin         xout
Kxout              Lx                 Lout         -7.94e-05
Kd1                Ld                 L1           -0.128
Kxq                Lx                 Lq           -0.00421
Kdout              Ld                 Lout         -0.000253
Kxd                Lx                 Ld           0.193
Kdq                Ld                 Lq           -0.00468
Kd2                Ld                 L2           -0.135
Kx1                Lx                 L1           -0.185
Kx2                Lx                 L2           -0.189
Kout               Lq                 Lout         -0.495
Ld                 1                  2            7.49pH
Lx                 12                 13           7.47pH
L1                 7                  8            1.56pH
L2                 4                  7            1.66pH
Lout               5                  11           31.2pH
Lq                 7                  0            7.82pH
R1                 5                  0            1e-12ohm
B2                 4                  0            jjmod        area=0.5
B1                 8                  0            jjmod        area=0.5
.ends


.subckt            const1             1            2            7             8           9
*inst name         cell_name          din          dout         q             xin         xout
L1                 8                  4            0.01pH
L2                 6                  9            0.01pH
L3                 1                  3            0.01pH
L4                 5                  2            0.01pH
XI0                const0             5            3            7             6           4
.ends


.subckt            inv                1            2            3             12          13             14
*inst name         cell_name          a            din          dout          q           xin            xout
Kxout              Lx                 Lout         0.0
Kd1                Ld                 L1           -0.133
Kxq                Lx                 Lq           0.0
Kdout              Ld                 Lout         0.0
Kxd                Lx                 Ld           0.19
Kdq                Ld                 Lq           0.0
Kd2                Ld                 L2           -0.133
Kx1                Lx                 L1           -0.186
Kx2                Lx                 L2           -0.186
Kout               Lq                 Lout         0.432
Ld                 2                  3            7.44pH
Lx                 13                 14           7.39pH
Lin                1                  8            1.24pH
L1                 8                  9            1.59pH
L2                 5                  8            1.59pH
Lout               6                  12           31.0pH
Lq                 8                  0            6.49pH
R1                 6                  0            1e-12ohm
B2                 5                  0            jjmod        area=0.6
B1                 9                  0            jjmod        area=0.6
.ends


.subckt            or_bb              1            2            3             4           12             13               14
*inst name         cell_name          a            b            din           dout        q              xin              xout
XI3                branch3            9            7            10            12
XI1                const1             8            11           7             5           6
XI2                bfr                2            11           4             10          6              14
XI0                bfr                1            3            8             9           13             5
.ends


.subckt            sink               1            2            3             10          11
*inst name         cell_name          a            din          dout          xin         xout
Kd1                Ld                 L1           -0.133
Kxq                Lx                 Lq           0.0
Kxd                Lx                 Ld           0.19
Kdq                Ld                 Lq           0.0
Kd2                Ld                 L2           -0.133
Kx1                Lx                 L1           -0.186
Kx2                Lx                 L2           -0.186
Ld                 2                  3            7.45pH
Lx                 10                 11           7.4pH
Lin                1                  7            1.23pH
L1                 7                  8            1.59pH
L2                 5                  7            1.59pH
Lq                 7                  0            7.92pH
B2                 5                  0            jjmod        area=0.5
B1                 8                  0            jjmod        area=0.5
.ends


.subckt            spl2               1            2            3             9           10             11               12
*inst name         cell_name          a            din          dout          x           xin            xout             y
XI0                bfr                1            4            6             7           8              5
XI14               bias_pair_10um     10           8            2             4
XI15               bias_pair_10um     5            11           6             3
XI1                branch2            9            12           7
.ends


.subckt            spl3L              1            2            3             9           10             11               12                13
*inst name         cell_name          a            din          dout          x           xin            xout             y                 z
XI14               bias_pair_20um     10           8            2             4
XI15               bias_pair_20um     5            11           6             3
XI0                bfrL               1            4            6             7           8              5
XI1                branch3            9            12           13            7
.ends


.subckt            maj_1bbbb_2_left   1            2            3             4           5              6                20                21         22
*inst name         cell_name          a            b            c             d           din            dout             q                 xin        xout
XI9                const1             5            19           8             21          11
XI2                bfr                3            18           12            15          9              16
XI1                bfr                2            17           18            13          7              9
XI0                bfr                1            19           17            10          11             7
XI7                bfr                4            12           6             14          16             22
XI8                branch5to1_5       8            10           13            15          14             20
.ends


.subckt            maj_1bbbb_2_right  1            2            3             4           5              6                20                21         22
*inst name         cell_name          a            b            c             d           din            dout             q                 xin        xout
XI9                const1             19           5            8             11          21
XI2                bfr                3            18           12            15          9              16
XI1                bfr                2            17           18            13          7              9
XI0                bfr                1            19           17            10          11             7
XI7                bfr                4            12           6             14          16             22
XI8                branch5to1_5       8            10           13            15          14             20
.ends


.subckt            risako_GP          1            2            3             4           5              6                7                 8          9          10         11         12        13        14        15         16         17         18         19         20
*inst name         cell_name          G            P            a             ac_in<0>    ac_in<1>       ac_in<2>         ac_in<3>          ac_out<0>  ac_out<1>  ac_out<2>  ac_out<3>  b         dc_in<0>  dc_in<1>  dc_in<2>   dc_in<3>   dc_out<0>  dc_out<1>  dc_out<2>  dc_out<3>
XI5                or_bb              27           33           17            26          2              8                28
XI2                bfr                23           26           13            1           28             4
XI567              bfr                50           19           49            24          10             47
XI568              bfr                46           49           45            48          47             44
XI569              bfr                43           45           53            32          44             51
XI570              bfr                42           53           38            31          51             37
XI579              bfr                36           38           35            25          37             34
XI580              bfr                30           35           15            52          34             6
XI116              and_ib             31           24           40            18          27             39               9
XI115              and_bi             25           48           29            40          33             41               39
XI117              and_bb             52           32           14            29          23             5                41
XI1                spl3L              12           20           22            50          11             21               46                43
XI0                spl3L              3            22           16            42          21             7                36                30
.ends


.subckt            risako_SUM         1            2            3             4           5              6                7                 8          9          10         11         12        13        14        15         16         17         18         39
*inst name         cell_name          Carry        P            ac_in<0>      ac_in<1>    ac_in<2>       ac_in<3>         ac_out<0>         ac_out<1>  ac_out<2>  ac_out<3>  dc_in<0>   dc_in<1>  dc_in<2>  dc_in<3>  dc_out<0>  dc_out<1>  dc_out<2>  dc_out<3>  sum
XI543              and_ib             33           34           16            30          36             8                25
XI734              bfr                32           31           17            33          29             9
XI733              bfr                28           26           31            35          24             29
XI732              bfr                23           19           26            34          38             24
XI731              bfr                37           13           19            20          5              38
XI69               spl2               2            22           18            28          21             10               32
XI68               spl2               1            14           22            37          6              21               23
XI552              or_bb              27           36           11            15          39             3                7
XI533              and_bi             35           20           30            12          27             25               4
.ends


.subckt            branch5to1_5       1            2            3             4           5              6
*inst name         cell_name          a            b            c             d           e              f
L5                 5                  11           26.8pH
L4                 4                  9            24.9pH
L3                 3                  8            22.9pH
L2                 2                  7            24.9pH
L1                 1                  10           26.7pH
L0                 8                  6            0.665pH
R3                 11                 9            1e-12ohm
R2                 9                  8            1e-12ohm
R1                 8                  7            1e-12ohm
R0                 7                  10           1e-12ohm
.ends


*this is top cell  maj5_16_bit_KSA
XI1086             risako_SUM         527          1353         1816          1821        1809           1813             1819              1805       1808       1811       1818       1820      1810      1815      1817       1806       1807       1812       716
XI1101             risako_SUM         2694         2697         2088          2081        2084           2085             2092              2089       2092       2089       2087       2082      2083      2086      2090       2090       2091       2091       370
XI1100             risako_SUM         2542         2725         2078          2065        2068           2071             2088              2081       2084       2085       2076       2066      2067      2072      2087       2082       2083       2086       350
XI1099             risako_SUM         868          1052         2075          2080        2069           2073             2078              2065       2068       2071       2077       2079      2070      2074      2076       2066       2067       2072       333
XI1098             risako_SUM         2705         2631         2281          2274        2277           2278             2075              2080       2069       2073       2280       2275      2276      2279      2077       2079       2070       2074       317
XI1097             risako_SUM         2687         2698         2273          2266        2269           2270             2281              2274       2277       2278       2272       2267      2268      2271      2280       2275       2276       2279       295
XI1096             risako_SUM         1869         2735         2265          2257        2260           2261             2273              2266       2269       2270       2264       2258      2259      2263      2272       2267       2268       2271       278
XI1095             risako_SUM         892          1019         2152          2139        2142           2145             2265              2257       2260       2261       2150       2140      2141      2146      2264       2258       2259       2263       177
XI1094             risako_SUM         2700         2653         2149          2154        2143           2147             2152              2139       2142       2145       2151       2153      2144      2148      2150       2140       2141       2146       148
XI1093             risako_SUM         1412         2699         2604          2596        2600           2601             2149              2154       2143       2147       2603       2597      2599      2602      2151       2153       2144       2148       3049
XI1092             risako_SUM         1403         1404         2595          2588        2591           2592             2604              2596       2600       2601       2594       2589      2590      2593      2603       2597       2599       2602       3032
XI1091             risako_SUM         1392         1393         2586          2579        2582           2583             2595              2588       2591       2592       2585       2580      2581      2584      2594       2589       2590       2593       3015
XI1090             risako_SUM         1385         1386         2578          2570        2573           2574             2586              2579       2582       2583       2577       2571      2572      2575      2585       2580       2581       2584       3001
XI1089             risako_SUM         1374         1376         2569          2561        2564           2566             2578              2570       2573       2574       2568       2562      2563      2567      2577       2571       2572       2575       2975
XI1088             risako_SUM         1369         1370         2560          2551        2556           2557             2569              2561       2564       2566       2559       2552      2555      2558      2568       2562       2563       2567       2951
XI1087             risako_SUM         1360         1362         1819          1805        1808           1811             2560              2551       2556       2557       1817       1806      1807      1812      2559       2552       2555       2558       2782
XI1325             bfr                1763         110          956           1767        0              948
XI1324             bfr                1758         110          947           1763        3066           931
XI1323             bfr                402          968          930           1758        3063           928
XI1321             bfr                1747         956          924           1750        948            923
XI1320             bfr                1743         947          921           1747        931            920
XI1319             bfr                716          930          913           1743        928            912
XI1317             bfr                1734         924          863           1737        923            857
XI1316             bfr                1730         921          856           1734        920            845
XI1315             bfr                2782         913          816           1730        912            812
XI1313             bfr                1720         863          758           1723        857            757
XI1312             bfr                1715         856          698           1720        845            692
XI1311             bfr                2951         816          663           1715        812            662
XI1309             bfr                1705         758          649           1708        757            648
XI1308             bfr                1701         698          645           1705        692            635
XI1307             bfr                2975         663          628           1701        662            625
XI1305             bfr                1691         649          503           1694        648            467
XI1304             bfr                1687         645          466           1691        635            464
XI1303             bfr                3001         628          463           1687        625            460
XI1301             bfr                1678         503          412           1681        467            403
XI1300             bfr                1674         466          401           1678        464            399
XI1299             bfr                3015         463          388           1674        460            387
XI1297             bfr                1664         412          358           1667        403            348
XI1296             bfr                1660         401          335           1664        399            325
XI1295             bfr                3032         388          314           1660        387            308
XI1293             bfr                1650         358          234           1653        348            233
XI1292             bfr                1646         335          231           1650        325            199
XI1291             bfr                3049         314          112           1646        308            3007
XI1289             bfr                1636         234          2929          1639        233            2888
XI1288             bfr                1633         231          2766          1636        199            2765
XI1287             bfr                148          112          2746          1633        3007           2743
XI1285             bfr                1623         2929         2576          1626        2888           2565
XI1284             bfr                1619         2766         1947          1623        2765           1902
XI1283             bfr                177          2746         1891          1619        2743           1880
XI1281             bfr                1609         2576         1614          1612        2565           1571
XI1280             bfr                1605         1947         1522          1609        1902           1513
XI1279             bfr                278          1891         1491          1605        1880           1450
XI1277             bfr                1595         1614         1351          1598        1571           1260
XI1276             bfr                1591         1522         1181          1595        1513           1147
XI1275             bfr                295          1491         790           1591        1450           59
XI1273             bfr                1581         1351         2701          1584        1260           2664
XI1272             bfr                1576         1181         1105          1581        1147           1071
XI1271             bfr                317          790          3             1576        59             3059
XI1269             bfr                526          2701         1490          1569        2664           220
XI1268             bfr                451          1105         1698          526         1071           1697
XI1267             bfr                333          3            1680          451         3059           1679
XI1265             bfr                415          1490         1692          439         220            1690
XI1264             bfr                373          1698         1686          415         1697           1685
XI1261             bfr                393          1692         1688          400         1690           1682
XI1260             bfr                385          1686         1683          393         1685           1684
XI1259             bfr                370          1677         1683          385         1675           1682
XI1263             bfr                350          1680         1677          373         1679           1675
XI1250             bfr                362          1645         1671          359         1644           1670
XI1249             bfr                359          1652         1673          347         1651           1672
XI1248             bfr                347          1640         1666          304         1638           1665
XI1247             bfr                339          1673         1668          313         1672           1659
XI1246             bfr                319          1671         1668          339         1670           1663
XI1245             bfr                313          1666         1661          306         1665           1663
XI1244             bfr                306          1658         1661          24          1657           1659
XI1243             bfr                304          1637         1658          29          1635           1657
XI1242             bfr                296          1622         1649          285         1620           1647