.model             jjmod                    jj(Rtype=1,  Vg=2.8mV,    Cap=0.064pF,  R0=100ohm,  Rn=17ohm,      Icrit=0.1mA)


.subckt            and_bb                   1            2            3             4           12             13              14
*inst name         cell_name                a            b            din           dout        q              xin             xout
XI0                bfr                      1            3            8             9           13             5
XI2                bfr                      2            11           4             10          7              14
XI3                branch3                  9            6            10            12
XI1                const0                   8            11           6             5           7
.ends


.subckt            bfr                      1            2            3             12          13             14
*inst name         cell_name                a            din          dout          q           xin            xout
B1                 9                        0            jjmod        area=0.5
B2                 5                        0            jjmod        area=0.5
Kd1                Ld                       L1           -0.133
Kd2                Ld                       L2           -0.133
Kdout              Ld                       Lout         0.0
Kdq                Ld                       Lq           0.0
Kout               Lq                       Lout         -0.495
Kx1                Lx                       L1           -0.186
Kx2                Lx                       L2           -0.186
Kxd                Lx                       Ld           0.19
Kxout              Lx                       Lout         0.0
Kxq                Lx                       Lq           0.0
L1                 8                        9            1.59pH
L2                 5                        8            1.59pH
Ld                 2                        3            7.45pH
Lin                1                        8            1.23pH
Lout               6                        12           31.2pH
Lq                 8                        0            7.92pH
Lx                 13                       14           7.4pH
R1                 6                        0            1e-12ohm
.ends


.subckt            bfrL                     1            2            3             12          13             14
*inst name         cell_name                a            din          dout          q           xin            xout
B1                 9                        0            jjmod        area=1.0
B2                 5                        0            jjmod        area=1.0
Kd1                Ld                       L1           -0.135
Kd2                Ld                       L2           -0.135
Kdout              Ld                       Lout         0.0
Kdq                Ld                       Lq           0.0
Kout               Lq                       Lout         -0.495
Kx1                Lx                       L1           -0.187
Kx2                Lx                       L2           -0.187
Kxd                Lx                       Ld           0.192
Kxout              Lx                       Lout         0.0
Kxq                Lx                       Lq           0.0
L1                 8                        9            1.59pH
L2                 5                        8            1.59pH
Ld                 2                        3            7.43pH
Lin                1                        8            1.24pH
Lout               6                        12           31.1pH
Lq                 8                        0            7.92pH
Lx                 13                       14           7.38pH
R1                 6                        0            1e-12ohm
.ends


.subckt            bias_pair_10um           1            2            3             4
*inst name         cell_name                a            b            c             d
*C0                 2                        0            0.00145pF
*C6                 4                        0            0.00144pF
L0                 1                        2            3.46pH
L1                 3                        4            3.73pH
.ends


.subckt            bias_pair_20um           1            2            3             4
*inst name         cell_name                a            b            c             d
XI0                bias_pair_10um           1            6            3             5
XI1                bias_pair_10um           6            2            5             4
.ends


.subckt            branch2                  1            2            3
*inst name         cell_name                a            b            c
Lip                6                        3            0.282pH
Lp1                1                        5            11.0pH
Lp2                2                        4            11.0pH
R0                 5                        6            1e-12ohm
R1                 4                        6            1e-12ohm
.ends


.subckt            branch3                  1            2            3             4
*inst name         cell_name                a            b            c             d
Lip                7                        4            0.312pH
Lp1                1                        6            11.8pH
Lp2                2                        7            10.2pH
Lp3                3                        5            11.8pH
R0                 6                        7            1e-12ohm
R1                 5                        7            1e-12ohm
.ends


.subckt            const0                   1            2            11            12          13
*inst name         cell_name                din          dout         q             xin         xout
B1                 8                        0            jjmod        area=0.5
B2                 4                        0            jjmod        area=0.5
Kd1                Ld                       L1           -0.128
Kd2                Ld                       L2           -0.135
Kdout              Ld                       Lout         -0.000253
Kdq                Ld                       Lq           -0.00468
Kout               Lq                       Lout         -0.495
Kx1                Lx                       L1           -0.185
Kx2                Lx                       L2           -0.189
Kxd                Lx                       Ld           0.193
Kxout              Lx                       Lout         -7.94e-05
Kxq                Lx                       Lq           -0.00421
L1                 7                        8            1.56pH
L2                 4                        7            1.66pH
Ld                 1                        2            7.49pH
Lout               5                        11           31.2pH
Lq                 7                        0            7.82pH
Lx                 12                       13           7.47pH
R1                 5                        0            1e-12ohm
.ends


.subckt            const1                   1            2            7             8           9
*inst name         cell_name                din          dout         q             xin         xout
L1                 8                        4            0.01pH
L2                 6                        9            0.01pH
L3                 1                        3            0.01pH
L4                 5                        2            0.01pH
XI0                const0                   5            3            7             6           4
.ends


.subckt            inv                      1            2            3             12          13             14
*inst name         cell_name                a            din          dout          q           xin            xout
B1                 9                        0            jjmod        area=0.6
B2                 5                        0            jjmod        area=0.6
Kd1                Ld                       L1           -0.133
Kd2                Ld                       L2           -0.133
Kdout              Ld                       Lout         0.0
Kdq                Ld                       Lq           0.0
Kout               Lq                       Lout         0.432
Kx1                Lx                       L1           -0.186
Kx2                Lx                       L2           -0.186
Kxd                Lx                       Ld           0.19
Kxout              Lx                       Lout         0.0
Kxq                Lx                       Lq           0.0
L1                 8                        9            1.59pH
L2                 5                        8            1.59pH
Ld                 2                        3            7.44pH
Lin                1                        8            1.24pH
Lout               6                        12           31.0pH
Lq                 8                        0            6.49pH
Lx                 13                       14           7.39pH
R1                 6                        0            1e-12ohm
.ends


.subckt            maj_bbb                  1            2            3             4           5              13              14                15
*inst name         cell_name                a            b            c             din         dout           q               xin               xout
XI0                bfr                      1            4            8             11          14             6
XI1                bfr                      2            8            10            12          6              7
XI2                bfr                      3            10           5             9           7              15
XI3                branch3                  11           12           9             13
.ends


.subckt            maj_bbi                  1            2            3             4           5              13              14                15
*inst name         cell_name                a            b            c             din         dout           q               xin               xout
XI0                bfr                      1            4            9             11          14             6
XI1                bfr                      2            9            12            7           6              8
XI3                branch3                  11           7            10            13
XI2                inv                      3            12           5             10          8              15
.ends


.subckt            maj_ibb                  1            2            3             4           5              13              14                15
*inst name         cell_name                a            b            c             din         dout           q               xin               xout
XI1                bfr                      2            8            10            12          6              7
XI2                bfr                      3            10           5             9           7              15
XI3                branch3                  11           12           9             13
XI0                inv                      1            4            8             11          14             6
.ends


.subckt            or_bb                    1            2            3             4           12             13              14
*inst name         cell_name                a            b            din           dout        q              xin             xout
XI0                bfr                      1            3            8             9           13             5
XI2                bfr                      2            11           4             10          6              14
XI3                branch3                  9            7            10            12
XI1                const1                   8            11           7             5           6
.ends


.subckt            sink                     1            2            3             10          11
*inst name         cell_name                a            din          dout          xin         xout
B1                 8                        0            jjmod        area=0.5
B2                 5                        0            jjmod        area=0.5
Kd1                Ld                       L1           -0.133
Kd2                Ld                       L2           -0.133
Kdq                Ld                       Lq           0.0
Kx1                Lx                       L1           -0.186
Kx2                Lx                       L2           -0.186
Kxd                Lx                       Ld           0.19
Kxq                Lx                       Lq           0.0
L1                 7                        8            1.59pH
L2                 5                        7            1.59pH
Ld                 2                        3            7.45pH
Lin                1                        7            1.23pH
Lq                 7                        0            7.92pH
Lx                 10                       11           7.4pH
.ends


.subckt            spl2                     1            2            3             9           10             11              12
*inst name         cell_name                a            din          dout          x           xin            xout            y
XI0                bfr                      1            4            6             7           8              5
XI14               bias_pair_10um           10           8            2             4
XI15               bias_pair_10um           5            11           6             3
XI1                branch2                  9            12           7
.ends


.subckt            spl3L                    1            2            3             9           10             11              12                13
*inst name         cell_name                a            din          dout          x           xin            xout            y                 z
XI0                bfrL                     1            4            6             7           8              5
XI14               bias_pair_20um           10           8            2             4
XI15               bias_pair_20um           5            11           6             3
XI1                branch3                  9            12           13            7
.ends


.subckt            maj3_KSA_GP_ene_opt      1            2            3             4           5              6               7                 8     9         10        11         12
*inst name         cell_name                G            P            a             ac_in<0>    ac_in<1>       ac_out<0>       ac_out<1>         b     dc_in<0>  dc_in<1>  dc_out<0>  dc_out<1>
XI9                and_bb                   13           14           19            9           1              20              4
XI10               or_bb                    18           16           11            19          2              6               20
XI11               spl2                     3            10           17            14          5              15              16
XI12               spl2                     8            17           12            13          15             7               18
.ends


.subckt            maj3_KSA_sum_ene_opt     1            2            3             4           5              6               7                 8     9         10        11         12         13         14         15         34
*inst name         cell_name                a            ac_in<0>     ac_in<1>      ac_in<2>    ac_out<0>      ac_out<1>       ac_out<2>         b     c         dc_in<0>  dc_in<1>   dc_in<2>   dc_out<0>  dc_out<1>  dc_out<2>  sum
XI3                bfr                      27           30           14            18          29             6
XI0                maj_bbb                  24           17           31            11          28             33              3                 26
XI1                maj_bbi                  25           23           32            28          30             16              26                29
XI2                maj_ibb                  33           16           18            10          13             34              2                 5
XI16               spl2                     8            22           21            17          19             20              23
XI6                spl2                     1            12           22            24          4              19              25
XI4                spl3L                    9            21           15            31          20             7               32                27
.ends


*this is top cell  maj3_16_bit_KSA_ene_opt
R0                 2848                     2349         1000.0ohm
R1                 1395                     2296         1000.0ohm
R10                195                      2840         1000.0ohm
R11                1152                     2888         1000.0ohm
R12                268                      2924         1000.0ohm
R13                1694                     2520         1000.0ohm
R14                365                      2630         1000.0ohm
R15                580                      2652         1000.0ohm
R16                1472                     2366         1000.0ohm
R17                30                       2328         1000.0ohm
R18                74                       2266         1000.0ohm
R19                687                      2168         1000.0ohm
R2                 3576                     2221         1000.0ohm
R20                882                      2067         1000.0ohm
R21                686                      1818         1000.0ohm
R22                1471                     3044         1000.0ohm
R23                469                      2969         1000.0ohm
R24                2                        2700         1000.0ohm
R25                45                       2761         1000.0ohm
R26                797                      2820         1000.0ohm
R27                974                      2859         1000.0ohm
R28                1237                     2910         1000.0ohm
R29                1049                     2477         1000.0ohm
R3                 3828                     2125         1000.0ohm
R30                2080                     2533         1000.0ohm
R31                1317                     2930         1000.0ohm
R4                 1557                     2015         1000.0ohm
R5                 3874                     1727         1000.0ohm
R6                 1619                     3011         1000.0ohm
R7                 3922                     2674         1000.0ohm
R8                 1122                     2744         1000.0ohm
R9                 104                      2805         1000.0ohm
Rac1               1779                     3956         100000.0ohm
Rac2               1853                     3959         100000.0ohm
Rdc                1835                     685          100000.0ohm
V0                 2848                     0            PWL          (0ps          0mv         20ps           {{input[31]}})
V1                 1395                     0            PWL          (0ps          0mv         20ps           {{input[29]}})
V10                195                      0            PWL          (0ps          0mv         20ps           {{input[11]}})
V11                1152                     0            PWL          (0ps          0mv         20ps           {{input[9]}})
V12                268                      0            PWL          (0ps          0mv         20ps           {{input[7]}})
V13                1694                     0            PWL          (0ps          0mv         20ps           {{input[5]}})
V14                365                      0            PWL          (0ps          0mv         20ps           {{input[3]}})
V15                580                      0            PWL          (0ps          0mv         20ps           {{input[1]}})
V16                1472                     0            PWL          (0ps          0mv         20ps           {{input[30]}})
V17                30                       0            PWL          (0ps          0mv         20ps           {{input[28]}})
V18                74                       0            PWL          (0ps          0mv         20ps           {{input[26]}})
V19                687                      0            PWL          (0ps          0mv         20ps           {{input[24]}})
V2                 3576                     0            PWL          (0ps          0mv         20ps           {{input[27]}})
V20                882                      0            PWL          (0ps          0mv         20ps           {{input[22]}})
V21                686                      0            PWL          (0ps          0mv         20ps           {{input[20]}})
V22                1471                     0            PWL          (0ps          0mv         20ps           {{input[18]}})
V23                469                      0            PWL          (0ps          0mv         20ps           {{input[16]}})
V24                2                        0            PWL          (0ps          0mv         20ps           {{input[14]}})
V25                45                       0            PWL          (0ps          0mv         20ps           {{input[12]}})
V26                797                      0            PWL          (0ps          0mv         20ps           {{input[10]}})
V27                974                      0            PWL          (0ps          0mv         20ps           {{input[8]}})
V28                1237                     0            PWL          (0ps          0mv         20ps           {{input[6]}})
V29                1049                     0            PWL          (0ps          0mv         20ps           {{input[4]}})
V3                 3828                     0            PWL          (0ps          0mv         20ps           {{input[25]}})
V30                2080                     0            PWL          (0ps          0mv         20ps           {{input[2]}})
V31                1317                     0            PWL          (0ps          0mv         20ps           {{input[0]}})
V4                 1557                     0            PWL          (0ps          0mv         20ps           {{input[23]}})
V5                 3874                     0            PWL          (0ps          0mv         20ps           {{input[21]}})
V6                 1619                     0            PWL          (0ps          0mv         20ps           {{input[19]}})
V7                 3922                     0            PWL          (0ps          0mv         20ps           {{input[17]}})
V8                 1122                     0            PWL          (0ps          0mv         20ps           {{input[15]}})
V9                 104                      0            PWL          (0ps          0mv         20ps           {{input[13]}})
Vdc                1835                     0            PWL          (0ps          0mV         20ps           113000mV)
V32                1779                     0            SIN          (0            81000mV     {{freq}}MEGHz  {{40+           period|int/4}}ps  0)
V33                1853                     0            SIN          SIN(0         81000mV     {{freq}}MEGHz  40ps            0)
XI2248             and_bb                   3899         3915         3688          3693        3691           3686            3692
XI2249             and_bb                   3817         1605         3049          3688        3694           3046            3686
XI2257             and_bb                   226          3930         3701          3705        3364           3700            3704
XI2258             and_bb                   3898         3950         3078          3701        3706           3069            3700
XI2266             and_bb                   1097         2166         3371          3376        3374           3369            3375
XI2267             and_bb                   1090         3            3098          3371        3377           3087            3369
XI2274             and_bb                   612          2263         3386          3142        3390           3385            3135
XI2285             and_bb                   221          3944         3392          3386        3425           3391            3385
XI2292             and_bb                   3181         212          3444          3189        363            3443            3182
XI2294             and_bb                   3923         244          3446          3444        3447           3445            3443
XI2301             and_bb                   3353         246          3463          3224        431            3462            3215
XI2303             and_bb                   247          2339         3465          3463        3466           3464            3462
XI2310             and_bb                   3110         450          3474          3261        209            3473            3234
XI2312             and_bb                   527          3946         3476          3474        3477           3475            3473
XI2319             and_bb                   451          3904         3490          3289        352            3489            3282
XI2321             and_bb                   452          3270         3493          3490        3494           3492            3489
XI2356             and_bb                   503          3936         31            3584        436            10              3583
XI2357             and_bb                   3940         120          32            2141        3589           13              2140
XI2432             and_bb                   109          2081         35            3510        446            22              3509
XI2433             and_bb                   3823         128          33            2112        3314           20              2111
XI3324             and_bb                   1084         106          1594          2463        1592           1593            2462
XI3325             and_bb                   1129         1087         1602          2357        1609           1601            2356
XI3326             and_bb                   703          699          1622          2945        821            1621            2948
XI3327             and_bb                   732          727          1641          2639        803            1640            2635
XI3328             and_bb                   750          654          1665          2607        1270           1664            2606
XI3329             and_bb                   677          673          1693          2837        623            1692            2834
XI3330             and_bb                   771          769          1724          2852        1773           1723            2851
XI3331             and_bb                   559          783          1797          2842        1731           1795            2841
XI3332             and_bb                   599          574          1852          2839        1670           1851            2838
XI3333             and_bb                   1309         1292         1141          2649        1288           1139            2640
XI3334             and_bb                   1756         1753         1653          2666        1752           1644            2665
XI3335             and_bb                   465          629          799           2359        806            796             2358
XI3336             and_bb                   640          295          824           2465        835            823             2464
XI3337             and_bb                   753          731          408           2609        720            397             2608
XI3338             and_bb                   582          581          3796          3678        1525           3792            3677
XI3339             and_bb                   587          608          3822          3683        1336           3821            3684
XI3340             and_bb                   586          326          3739          2669        3666           3734            2667
XI3341             and_bb                   410          324          2669          3665        1441           2667            3663
XI3342             and_bb                   331          696          2245          1402        3647           2243            1355
XI3343             and_bb                   718          649          1402          3653        1432           1355            3654
XI3344             and_bb                   669          235          2240          1473        3640           2239            1450
XI3345             and_bb                   275          239          1473          3642        1515           1450            3641
XI3346             and_bb                   666          533          2217          2146        3633           2211            2148
XI3347             and_bb                   756          532          2146          3625        645            2148            3624
XI3348             and_bb                   672          779          2153          678         3623           2159            656
XI3349             and_bb                   759          552          678           3638        818            656             3639