**** **** **** **** **** **** **** **** **** **** **** 
*JSIM control file for CADENCE by kameda@cq.jp.nec.com
**** **** **** **** **** **** **** **** **** **** ****

*JSIM model
**HSTP**
.model jjmod jj(Rtype=1, Vg=2.8mV, Cap=0.064pF, R0=100ohm, Rn=17ohm, Icrit=0.1mA)
**OPEN**
*.model jjmod jj(Rtype=1, Vg=2.8mV, Cap=0.218pF, R0=200ohm, Rn=17ohm, Icrit=0.1mA)


*** netlist file ***
**** **** **** **** **** **** **** ****+
*** Lib : hstp_ttanaka_lib
*** Cell: maj5_8_bit_KSA
*** View: schematic
*** Dec 23 12:09:45 2021
**** **** **** **** **** **** **** ****

*** branch3
.subckt branch3          1          2          3          4
***         a         b         c         d
Lip                5         4   0.312pH fcheck
Lp3                3         6  11.800pH fcheck
Lp2                2         5  10.200pH fcheck
Lp1                1         7  11.800pH fcheck
R0                 7         5   1.000pohm
R1                 6         5   1.000pohm
.ends

*** const0
.subckt const0          8          9         10         11         12
***       din      dout         q       xin      xout
Kxout              Lx       Lout -0.000
Kd1                Ld         L1 -0.128
Kxq                Lx         Lq -0.004
Kdout              Ld       Lout -0.000
Kxd                Lx         Ld 0.193
Kdq                Ld         Lq -0.005
Kd2                Ld         L2 -0.135
Kx1                Lx         L1 -0.185
Kx2                Lx         L2 -0.189
Kout               Lq       Lout -0.495
Ld                 8         9   7.490pH fcheck
Lx                11        12   7.470pH fcheck
L1                13        14   1.560pH fcheck
L2                 5        13   1.660pH fcheck
Lout              15        10  31.200pH fcheck
Lq                13         0   7.820pH fcheck
R1                15         0   1.000pohm
B2                 5         0  jjmod area=0.50
B1                14         0  jjmod area=0.50
.ends

*** const1
.subckt const1          8          9         10         11         12
***       din      dout         q       xin      xout
L1                11        16   0.010pH fcheck
L2                17        12   0.010pH fcheck
L3                 8        18   0.010pH fcheck
L4                19         9   0.010pH fcheck
XI0            const0         19         18         10         17         16
.ends

*** bfr
.subckt bfr          1          8          9         10         11         12
***         a       din      dout         q       xin      xout
Kxout              Lx       Lout 0.000
Kd1                Ld         L1 -0.133
Kxq                Lx         Lq 0.000
Kdout              Ld       Lout 0.000
Kxd                Lx         Ld 0.190
Kdq                Ld         Lq 0.000
Kd2                Ld         L2 -0.133
Kx1                Lx         L1 -0.186
Kx2                Lx         L2 -0.186
Kout               Lq       Lout -0.495
Ld                 8         9   7.450pH fcheck
Lx                11        12   7.400pH fcheck
Lin                1        13   1.230pH fcheck
L1                13        14   1.590pH fcheck
L2                 5        13   1.590pH fcheck
Lout              15        10  31.200pH fcheck
Lq                13         0   7.920pH fcheck
R1                15         0   1.000pohm
B2                 5         0  jjmod area=0.50
B1                14         0  jjmod area=0.50
.ends

*** or_bb
.subckt or_bb          1          2          8          9         10         11         12
***         a         b       din      dout         q       xin      xout
XI3           branch3         16         20         21         10
XI1            const1         22         23         20         24         25
XI2               bfr          2         23          9         21         25         12
XI0               bfr          1          8         22         16         11         24
.ends

*** inv
.subckt inv          1          8          9         10         11         12
***         a       din      dout         q       xin      xout
Kxout              Lx       Lout 0.000
Kd1                Ld         L1 -0.133
Kxq                Lx         Lq 0.000
Kdout              Ld       Lout 0.000
Kxd                Lx         Ld 0.190
Kdq                Ld         Lq 0.000
Kd2                Ld         L2 -0.133
Kx1                Lx         L1 -0.186
Kx2                Lx         L2 -0.186
Kout               Lq       Lout 0.432
Ld                 8         9   7.440pH fcheck
Lx                11        12   7.390pH fcheck
Lin                1        13   1.240pH fcheck
L1                13        14   1.590pH fcheck
L2                 5        13   1.590pH fcheck
Lout              15        10  31.000pH fcheck
Lq                13         0   6.490pH fcheck
R1                15         0   1.000pohm
B2                 5         0  jjmod area=0.60
B1                14         0  jjmod area=0.60
.ends

*** and_ib
.subckt and_ib          1          2          8          9         10         11         12
***         a         b       din      dout         q       xin      xout
XI2               bfr          2         23          9         21         25         12
XI1            const0         26         23         20         24         25
XI3           branch3         16         20         21         10
XI0               inv          1          8         26         16         11         24
.ends

*** and_bi
.subckt and_bi          1          2          8          9         10         11         12
***         a         b       din      dout         q       xin      xout
XI1            const0         20         23         26         24         25
XI3           branch3         16         26         21         10
XI2               inv          2         23          9         21         25         12
XI0               bfr          1          8         20         16         11         24
.ends

*** and_bb
.subckt and_bb          1          2          8          9         10         11         12
***         a         b       din      dout         q       xin      xout
XI3           branch3         16         27         21         10
XI1            const0         20         23         27         24         25
XI2               bfr          2         23          9         21         25         12
XI0               bfr          1          8         20         16         11         24
.ends

*** bias_pair_10um
.subckt bias_pair_10um          1          2          3          4
***         a         b         c         d
L1                 3         4   3.730pH fcheck
L0                 1         2   3.460pH fcheck
*C6                 4         0   0.001pF
*C0                 2         0   0.001pF
.ends

*** bias_pair_20um
.subckt bias_pair_20um          1          2          3          4
***         a         b         c         d
XI1        bias_pair_10um         28          2         29          4
XI0        bias_pair_10um          1         28          3         29
.ends

*** bfrL
.subckt bfrL          1          8          9         10         11         12
***         a       din      dout         q       xin      xout
Kxout              Lx       Lout 0.000
Kd1                Ld         L1 -0.135
Kxq                Lx         Lq 0.000
Kdout              Ld       Lout 0.000
Kxd                Lx         Ld 0.192
Kdq                Ld         Lq 0.000
Kd2                Ld         L2 -0.135
Kx1                Lx         L1 -0.187
Kx2                Lx         L2 -0.187
Kout               Lq       Lout -0.495
Ld                 8         9   7.430pH fcheck
Lx                11        12   7.380pH fcheck
Lin                1        13   1.240pH fcheck
L1                13        14   1.590pH fcheck
L2                 5        13   1.590pH fcheck
Lout              15        10  31.100pH fcheck
Lq                13         0   7.920pH fcheck
R1                15         0   1.000pohm
B2                 5         0  jjmod area=1.00
B1                14         0  jjmod area=1.00
.ends

*** spl3L
.subckt spl3L          1          8          9         30         11         12         31         32
***         a       din      dout         x       xin      xout         y         z
XI14       bias_pair_20um         11         33          8         24
XI15       bias_pair_20um         27         12         25          9
XI0              bfrL          1         24         25         16         33         27
XI1           branch3         30         31         32         16
.ends

*** risako_GP
.subckt risako_GP         34         35          1         36         37         38         39         40         41         42         43          2         44         45         46         47         48         49         50         51
***         G         P         a  ac_in<0>  ac_in<1>  ac_in<2>  ac_in<3> ac_out<0> ac_out<1> ac_out<2> ac_out<3>         b  dc_in<0>  dc_in<1>  dc_in<2>  dc_in<3> dc_out<0> dc_out<1> dc_out<2> dc_out<3>
XI5             or_bb         13         52         48         53         35         40         54
XI2               bfr         55         53         44         34         54         36
XI567             bfr         56         50         57         58         42         59
XI568             bfr         60         57         61         62         59         63
XI569             bfr         64         61         65         66         63         67
XI570             bfr         68         65         69         70         67         71
XI579             bfr         72         69         73         74         71         75
XI580             bfr         17         73         46         76         75         38
XI116          and_ib         70         58         77         49         13         14         41
XI115          and_bi         74         62         78         77         52         79         14
XI117          and_bb         76         66         45         78         55         37         79
XI1             spl3L          2         51         80         56         43         81         60         64
XI0             spl3L          1         80         47         68         81         39         72         17
.ends

*** branch2
.subckt branch2          1          2          3
***         a         b         c
Lip                5         3   0.282pH fcheck
Lp2                2         6  11.000pH fcheck
Lp1                1         7  11.000pH fcheck
R0                 7         5   1.000pohm
R1                 6         5   1.000pohm
.ends

*** spl2
.subckt spl2          1          8          9         30         11         12         31
***         a       din      dout         x       xin      xout         y
XI0               bfr          1         24         25         16         33         27
XI14       bias_pair_10um         11         33          8         24
XI15       bias_pair_10um         27         12         25          9
XI1           branch2         30         31         16
.ends

*** spl3
.subckt spl3          1          8          9         30         11         12         31         32
***         a       din      dout         x       xin      xout         y         z
XI0               bfr          1         24         25         16         33         27
XI1           branch3         30         31         32         16
XI14       bias_pair_20um         11         33          8         24
XI15       bias_pair_20um         27         12         25          9
.ends

*** branch5to1_5
.subckt branch5to1_5          1          2          3          4         82         83
***         a         b         c         d         e         f
L5                82        65  26.800pH fcheck
L4                 4        84  24.900pH fcheck
L3                 3        70  22.900pH fcheck
L2                 2        85  24.900pH fcheck
L1                 1        62  26.700pH fcheck
L0                70        83   0.665pH fcheck
R3                65        84   1.000pohm
R2                84        70   1.000pohm
R1                70        85   1.000pohm
R0                85        62   1.000pohm
.ends

*** maj_1bbbb_2_right
.subckt maj_1bbbb_2_right          1          2          3          4          8          9         10         11         12
***         a         b         c         d       din      dout         q       xin      xout
XI9            const1         86          8         27         87         11
XI2               bfr          3          5         22         88         25          6
XI1               bfr          2         16          5         89         24         25
XI0               bfr          1         86         16         26         87         24
XI7               bfr          4         22          9         90          6         12
XI8        branch5to1_5         27         26         89         88         90         10
.ends

*** risako_SUM
.subckt risako_SUM         91         35         36         37         38         39         40         41         42         43         44         45         46         47         48         49         50         51         92
***     Carry         P  ac_in<0>  ac_in<1>  ac_in<2>  ac_in<3> ac_out<0> ac_out<1> ac_out<2> ac_out<3>  dc_in<0>  dc_in<1>  dc_in<2>  dc_in<3> dc_out<0> dc_out<1> dc_out<2> dc_out<3>       sum
XI543          and_ib         62         28         49         84         67         41         70
XI734             bfr         61         79         50         62         93         42
XI733             bfr         77         66         79         94         17         93
XI732             bfr         78         81         66         28         65         17
XI731             bfr         76         46         81         80         38         65
XI69             spl2         35         53         51         77         74         43         61
XI68             spl2         91         47         53         76         39         74         78
XI552           or_bb         71         67         44         48         92         36         40
XI533          and_bi         94         80         84         45         71         70         37
.ends

*** sink
.subckt sink          1          8          9         11         12
***         a       din      dout       xin      xout
Kd1                Ld         L1 -0.133
Kxq                Lx         Lq 0.000
Kxd                Lx         Ld 0.190
Kdq                Ld         Lq 0.000
Kd2                Ld         L2 -0.133
Kx1                Lx         L1 -0.186
Kx2                Lx         L2 -0.186
Ld                 8         9   7.450pH fcheck
Lx                11        12   7.400pH fcheck
Lin                1        13   1.230pH fcheck
L1                13        14   1.590pH fcheck
L2                 5        13   1.590pH fcheck
Lq                13         0   7.920pH fcheck
B2                 5         0  jjmod area=0.50
B1                14         0  jjmod area=0.50
.ends

*** maj_1bbbb_2_left
.subckt maj_1bbbb_2_left          1          2          3          4          8          9         10         11         12
***         a         b         c         d       din      dout         q       xin      xout
XI9            const1          8         86         27         11         87
XI2               bfr          3          5         22         88         25          6
XI1               bfr          2         16          5         89         24         25
XI0               bfr          1         86         16         26         87         24
XI7               bfr          4         22          9         90          6         12
XI8        branch5to1_5         27         26         89         88         90         10
.ends

*** top cell: maj5_8_bit_KSA
XI7         risako_GP         95         96         97         98         99        100        101        102        103        102        103        104        105        106        107        108        109        109        110        110
XI6         risako_GP        111        112        113        114        115        116        117         98         99        100        101        118        119        120        121        122        105        106        107        108
XI5         risako_GP        123        124        125        126        127        128        129        114        115        116        117        130        131        132        133        134        119        120        121        122
XI4         risako_GP        135        136        137        138        139        140        141        126        127        128        129        142        143        144         56        145        131        132        133        134
XI3         risako_GP        146        147        148         64         57        149         61        138        139        140        141        150         63         59         68         60        143        144         56        145
XI2         risako_GP        151        152        153         73         77         52         71         64         57        149         61        154         72         14         75         69         63         59         68         60
XI1         risako_GP         79         93        155         28         13         84         65         73         77         52         71        156         94         53         62         81         72         14         75         69
XI0         risako_GP         78         54        157         70         58        158        159         28         13         84         65        160         85         67         67        161         94         53         62         81
XI358             bfr        162        163        164        165        166        167
XI356             bfr        165        163        168        169        170        171
XI355             bfr        169        172        173        174          0        176
*** ("175") mapped to 0
XI354             bfr        177        178        179        180        181        182
XI352             bfr        180        183        184        185        186        187
XI351             bfr        185        188        184        189        190        182
XI350             bfr        191        192        178        193        194        181
XI348             bfr        193        195        183        196        197        186
XI347             bfr        196        198        188        199        200        190
XI346             bfr        201        202        192        203        204        194
XI344             bfr        203        205        195        206        207        197
XI343             bfr        206        208        198        209        210        200
XI342             bfr        211        212        202        213        214        204
XI340             bfr        213        215        205        216        217        207
XI339             bfr        216        218        208        219        220        210
XI338             bfr        221        222        212        223        224        214
XI336             bfr        223        225        215        226        227        217
XI335             bfr        226        228        218        229        230        220
XI321             bfr        231        232        233        234        235        236
XI320             bfr        237        238        239        231        240        241
XI319             bfr        242        243        239        237        244        236
XI318             bfr        234        245        233        104        246        241
XI317             bfr        247        248        245         97        249        246
XI316             bfr        250        251        243        252        253        244
XI315             bfr        252        254        238        255        256        240
XI314             bfr        255        257        232        247        258        235
XI313             bfr        259        260        261        262        263        264
XI312             bfr        262        265        266        267        268        269
XI311             bfr        267        270        271        272        273        274
XI310             bfr        272        275        276        113        277        278
XI309             bfr        279        280        281        125        282        283
XI308             bfr        284        285        286        287        288        289
XI307             bfr        287        290        291        292        293        294
XI306             bfr        292        295        296        279        297        298
XI305             bfr        299        300        301        137        302        303
XI304             bfr        304        305        306        307        308        309
XI303             bfr        307        310        311        312        313        314
XI302             bfr        312        315        316        299        317        318
XI301             bfr        319        320        321        148        322        323
XI300             bfr        324        325        326        327        328        329
XI299             bfr        327        330        331        332        333        334
XI298             bfr        332        335        336        319        337        338
XI297             bfr        339        340        341        342        343        344
XI296             bfr        342        345        346        347        348        349
XI295             bfr        347        350        351        352        353        354
XI294             bfr        352        355        356        153        357        358
XI293             bfr        359        360        361        155        362        363
XI292             bfr        364        365        366        367        368        369
XI291             bfr        367        370        371        372        373        374
XI290             bfr        372        375        376        359        377        378
XI289             bfr        379        271        257        380        274        258
XI288             bfr        381        266        254        379        269        256
XI287             bfr        382        261        251        381        264        253
XI286             bfr        380        276        248        118        278        249
XI285             bfr        383        296        270        384        298        273
XI284             bfr        385        291        265        383        294        268
XI283             bfr        386        286        260        385        289        263
XI282             bfr        384        281        275        130        283        277
XI281             bfr        387        316        295        388        318        297
XI280             bfr        389        311        290        387        314        293
XI279             bfr        390        306        285        389        309        288
XI278             bfr        388        301        280        142        303        282
XI277             bfr        391        336        315        392        338        317
XI276             bfr        393        331        310        391        334        313
XI275             bfr        394        326        305        393        329        308
XI274             bfr        392        321        300        150        323        302
XI273             bfr        395        351        335        396        354        337
XI272             bfr        397        346        330        395        349        333
XI271             bfr        398        341        325        397        344        328
XI270             bfr        396        356        320        154        358        322
XI269             bfr        399        376        350        400        378        353
XI268             bfr        401        371        345        399        374        348
XI267             bfr        402        366        340        401        369        343
XI266             bfr        400        361        355        156        363        357
XI265             bfr        403        404        375        405        406        377
XI264             bfr        407        408        370        403        409        373
XI263             bfr         17        410        365        407        411        368
XI262             bfr        405        412        360        160        413        362
XI261             bfr         66        414        410        415        416        411
XI260             bfr        415        417        408        418        419        409
XI259             bfr        418        417        404        420        159        406
XI258             bfr        420        161        412        157        158        413
XI325             bfr        421        168        422        423        171        424
XI324             bfr        425        164        426        421        167        427
XI334             bfr        428        429        222        430        431        224
XI332             bfr        430        432        225        433        434        227
XI331             bfr        433        435        228        436        437        230
XI330             bfr        438        426        429        439        427        431
XI328             bfr        439        422        432        440        424        434
XI327             bfr        440        441        435        442        443        437
XI326             bfr        423        173        441        444        176        443
XI225             bfr        445        446        447        448        449        450
XI224             bfr        451        452        453        454        455        456
XI223             bfr        457        458        459        460        461        462
XI222             bfr        463        464        465        466        467        468
XI221             bfr        469        470        471        472        473        474
XI220             bfr        475        476        477        478        479        480
XI219             bfr        481        482        483        484        485        486
XI218             bfr        487        488        489        463        490        491
XI217             bfr        492        493        494        495        496        497
XI216             bfr        495        498        499        487        500        501
XI215             bfr        502        503        504        505        506        507
XI214             bfr        508        509        510        502        511        512
XI213             bfr        505        513        514        457        515        516
XI212             bfr        517        518        519        451        520        521
XI211             bfr        522        523        524        525        526        527
XI210             bfr        525        528        529        517        530        531
XI209             bfr        532        533        534        535        536        537
XI208             bfr        538        539        540        532        541        542
XI207             bfr        535        543        544        469        545        546
XI206             bfr        547        548        549        475        550        551
XI205             bfr        552        553        554        555        556        557
XI203             bfr        555        558        559        547        560        561
XI202             bfr        562        563        564        565        566        567
XI201             bfr        568        569        570        562        571        572
XI200             bfr        565        573        574        481        575        576
XI199             bfr        577        578        579        492        580        581
XI198             bfr        582        583        584        508        585        586
XI197             bfr        587        588        589        522        590        591
XI196             bfr        592        593        594        538        595        596
XI195             bfr        597        598        599        552        600        601
XI194             bfr        602        603        604        568        605        606
XI193             bfr        607        608        609        577        610        611
XI192             bfr        612        613        614        582        615        616
XI191             bfr        617        618        619        587        620        621
XI190             bfr        622        623        624        592        625        626
XI189             bfr        627        628        629        597        630        631
XI188             bfr        632        633        634        602        635        636
XI187             bfr        637        638        639        640        641        642
XI186             bfr        643        465        446        644        468        449
XI185             bfr        645        646        638        647        648        641
XI184             bfr        649        459        464        650        462        467
XI183             bfr        651        453        458        652        456        461
XI182             bfr        653        654        655        162        656        657
XI179             bfr        658        659        660        661        662        663
XI180             bfr        661        659        664        665        656        666
XI181             bfr        665        654        667        653        166        668
XI176             bfr        669        670        671        637        672        673
XI175             bfr        674        675        671        669        676        677