**** **** **** **** **** **** **** **** **** **** **** 
*JSIM control file for CADENCE by kameda@cq.jp.nec.com
**** **** **** **** **** **** **** **** **** **** ****

*JSIM model
**HSTP**
.model jjmod jj(Rtype=1, Vg=2.8mV, Cap=0.064pF, R0=100ohm, Rn=17ohm, Icrit=0.1mA)
**OPEN**
*.model jjmod jj(Rtype=1, Vg=2.8mV, Cap=0.218pF, R0=200ohm, Rn=17ohm, Icrit=0.1mA)


*** netlist file ***
**** **** **** **** **** **** **** ****+
*** Lib : hstp_ttanaka_lib
*** Cell: maj3_16_bit_KSA
*** View: schematic
*** Mar 22 14:52:39 2022
**** **** **** **** **** **** **** ****

*** bfr
.subckt bfr          1          2          3          4          5          6
***         a       din      dout         q       xin      xout
Kxout              Lx       Lout 0.000
Kd1                Ld         L1 -0.133
Kxq                Lx         Lq 0.000
Kdout              Ld       Lout 0.000
Kxd                Lx         Ld 0.190
Kdq                Ld         Lq 0.000
Kd2                Ld         L2 -0.133
Kx1                Lx         L1 -0.186
Kx2                Lx         L2 -0.186
Kout               Lq       Lout -0.495
Ld                 2         3   7.450pH fcheck
Lx                 5         6   7.400pH fcheck
Lin                1         7   1.230pH fcheck
L1                 7         8   1.590pH fcheck
L2                 9         7   1.590pH fcheck
Lout              10         4  31.200pH fcheck
Lq                 7         0   7.920pH fcheck
R1                10         0   1.000pohm
B2                 9         0  jjmod area=0.50
B1                 8         0  jjmod area=0.50
.ends

*** branch3
.subckt branch3          1         11         12         13
***         a         b         c         d
Lip                9        13   0.312pH fcheck
Lp3               12        14  11.800pH fcheck
Lp2               11         9  10.200pH fcheck
Lp1                1        15  11.800pH fcheck
R0                15         9   1.000pohm
R1                14         9   1.000pohm
.ends

*** const0
.subckt const0          2          3          4          5          6
***       din      dout         q       xin      xout
Kxout              Lx       Lout -0.000
Kd1                Ld         L1 -0.128
Kxq                Lx         Lq -0.004
Kdout              Ld       Lout -0.000
Kxd                Lx         Ld 0.193
Kdq                Ld         Lq -0.005
Kd2                Ld         L2 -0.135
Kx1                Lx         L1 -0.185
Kx2                Lx         L2 -0.189
Kout               Lq       Lout -0.495
Ld                 2         3   7.490pH fcheck
Lx                 5         6   7.470pH fcheck
L1                 7         8   1.560pH fcheck
L2                 9         7   1.660pH fcheck
Lout              10         4  31.200pH fcheck
Lq                 7         0   7.820pH fcheck
R1                10         0   1.000pohm
B2                 9         0  jjmod area=0.50
B1                 8         0  jjmod area=0.50
.ends

*** const1
.subckt const1          2          3          4          5          6
***       din      dout         q       xin      xout
L1                 5        16   0.010pH fcheck
L2                17         6   0.010pH fcheck
L3                 2        18   0.010pH fcheck
L4                19         3   0.010pH fcheck
XI0            const0         19         18          4         17         16
.ends

*** or_bb
.subckt or_bb          1         11          2          3          4          5          6
***         a         b       din      dout         q       xin      xout
XI3           branch3         16         20         21          4
XI1            const1         22         23         20         24         25
XI2               bfr         11         23          3         21         25          6
XI0               bfr          1          2         22         16          5         24
.ends

*** and_bb
.subckt and_bb          1         11          2          3          4          5          6
***         a         b       din      dout         q       xin      xout
XI3           branch3         16         26         21          4
XI1            const0         20         23         26         24         25
XI2               bfr         11         23          3         21         25          6
XI0               bfr          1          2         20         16          5         24
.ends

*** maj_bbb
.subckt maj_bbb          1         11         12          2          3          4          5          6
***         a         b         c       din      dout         q       xin      xout
XI3           branch3         16         23         22          4
XI2               bfr         12         27          3         22         25          6
XI1               bfr         11         20         27         23         24         25
XI0               bfr          1          2         20         16          5         24
.ends

*** bias_pair_10um
.subckt bias_pair_10um          1         11         12         13
***         a         b         c         d
L1                12        13   3.730pH fcheck
L0                 1        11   3.460pH fcheck
*C6                13         0   0.001pF
*C0                11         0   0.001pF
.ends

*** bias_pair_20um
.subckt bias_pair_20um          1         11         12         13
***         a         b         c         d
XI1        bias_pair_10um         28         11         29         13
XI0        bias_pair_10um          1         28         12         29
.ends

*** bfrL
.subckt bfrL          1          2          3          4          5          6
***         a       din      dout         q       xin      xout
Kxout              Lx       Lout 0.000
Kd1                Ld         L1 -0.135
Kxq                Lx         Lq 0.000
Kdout              Ld       Lout 0.000
Kxd                Lx         Ld 0.192
Kdq                Ld         Lq 0.000
Kd2                Ld         L2 -0.135
Kx1                Lx         L1 -0.187
Kx2                Lx         L2 -0.187
Kout               Lq       Lout -0.495
Ld                 2         3   7.430pH fcheck
Lx                 5         6   7.380pH fcheck
Lin                1         7   1.240pH fcheck
L1                 7         8   1.590pH fcheck
L2                 9         7   1.590pH fcheck
Lout              10         4  31.100pH fcheck
Lq                 7         0   7.920pH fcheck
R1                10         0   1.000pohm
B2                 9         0  jjmod area=1.00
B1                 8         0  jjmod area=1.00
.ends

*** spl3L
.subckt spl3L          1          2          3         30          5          6         31         32
***         a       din      dout         x       xin      xout         y         z
XI14       bias_pair_20um          5         33          2         24
XI15       bias_pair_20um         26          6         25          3
XI0              bfrL          1         24         25         16         33         26
XI1           branch3         30         31         32         16
.ends

*** branch2
.subckt branch2          1         11         12
***         a         b         c
Lip                9        12   0.282pH fcheck
Lp2               11        14  11.000pH fcheck
Lp1                1        15  11.000pH fcheck
R0                15         9   1.000pohm
R1                14         9   1.000pohm
.ends

*** spl2
.subckt spl2          1          2          3         30          5          6         31
***         a       din      dout         x       xin      xout         y
XI0               bfr          1         24         25         16         33         26
XI14       bias_pair_10um          5         33          2         24
XI15       bias_pair_10um         26          6         25          3
XI1           branch2         30         31         16
.ends

*** inv
.subckt inv          1          2          3          4          5          6
***         a       din      dout         q       xin      xout
Kxout              Lx       Lout 0.000
Kd1                Ld         L1 -0.133
Kxq                Lx         Lq 0.000
Kdout              Ld       Lout 0.000
Kxd                Lx         Ld 0.190
Kdq                Ld         Lq 0.000
Kd2                Ld         L2 -0.133
Kx1                Lx         L1 -0.186
Kx2                Lx         L2 -0.186
Kout               Lq       Lout 0.432
Ld                 2         3   7.440pH fcheck
Lx                 5         6   7.390pH fcheck
Lin                1         7   1.240pH fcheck
L1                 7         8   1.590pH fcheck
L2                 9         7   1.590pH fcheck
Lout              10         4  31.000pH fcheck
Lq                 7         0   6.490pH fcheck
R1                10         0   1.000pohm
B2                 9         0  jjmod area=0.60
B1                 8         0  jjmod area=0.60
.ends

*** maj_bbi
.subckt maj_bbi          1         11         12          2          3          4          5          6
***         a         b         c       din      dout         q       xin      xout
XI3           branch3         16         26         22          4
XI1               bfr         11         20         23         26         24         25
XI0               bfr          1          2         20         16          5         24
XI2               inv         12         23          3         22         25          6
.ends

*** maj_ibb
.subckt maj_ibb          1         11         12          2          3          4          5          6
***         a         b         c       din      dout         q       xin      xout
XI3           branch3         16         23         22          4
XI0               inv          1          2         20         16          5         24
XI2               bfr         12         27          3         22         25          6
XI1               bfr         11         20         27         23         24         25
.ends

*** maj3_KSA_sum
.subckt maj3_KSA_sum          1         34         35         36         37         38         39         40         41         11         12         42         43         44         45         46         47         48         49         50
***         a  ac_in<0>  ac_in<1>  ac_in<2>  ac_in<3> ac_out<0> ac_out<1> ac_out<2> ac_out<3>         b         c  dc_in<0>  dc_in<1>  dc_in<2>  dc_in<3> dc_out<0> dc_out<1> dc_out<2> dc_out<3>       sum
XI7               bfr         51         52         48         53         54         40
XI17              bfr         55         56         57         58         59         60
XI3               bfr         53         61         47         62         63         39
XI13              bfr         64         65         66         67         68         69
XI14              bfr         70         44         65         71         36         68
XI15              bfr         17         66         56         28         69         59
XI9               bfr          7         57         72         73         60         74
XI8               bfr         75         72         52         76         74         54
XI4             spl3L         12         77         49          7         78         41         75         51
XI6              spl2          1         45          8         70         37         79         64
XI16             spl2         11          8         77         17         79         78         55
XI1           maj_bbi         67         58         76         80         61         81         82         63
XI0           maj_bbb         71         28         73         43         80         83         35         82
XI2           maj_ibb         83         81         62         42         46         50         34         38
.ends

*** spl2L
.subckt spl2L          1          2          3         30          5          6         31
***         a       din      dout         x       xin      xout         y
XI1           branch2         30         31         16
XI14       bias_pair_10um          5         33          2         24
XI15       bias_pair_10um         26          6         25          3
XI0              bfrL          1         24         25         16         33         26
.ends

*** maj3_KSA_GP
.subckt maj3_KSA_GP         84         85          1         34         35         36         38         39         40         11         42         43         44         46         47         48
***         G         P         a  ac_in<0>  ac_in<1>  ac_in<2> ac_out<0> ac_out<1> ac_out<2>         b  dc_in<0>  dc_in<1>  dc_in<2> dc_out<0> dc_out<1> dc_out<2>
XI8               bfr         54         69         47         86         56         39
XI7               bfr         75         17         69         79         57         56
XI6               bfr         58         74         17         59         52         57
XI5               bfr         28         43         74          7         35         52
XI10            or_bb         59         86         70         46         85         55         38
XI4             spl2L         11         67         48         75         62         40         54
XI3             spl2L          1         44         67         28         36         62         58
XI9            and_bb          7         79         42         70         84         34         55
.ends

*** sink
.subckt sink          1          2          3          5          6
***         a       din      dout       xin      xout
Kd1                Ld         L1 -0.133
Kxq                Lx         Lq 0.000
Kxd                Lx         Ld 0.190
Kdq                Ld         Lq 0.000
Kd2                Ld         L2 -0.133
Kx1                Lx         L1 -0.186
Kx2                Lx         L2 -0.186
Ld                 2         3   7.450pH fcheck
Lx                 5         6   7.400pH fcheck
Lin                1         7   1.230pH fcheck
L1                 7         8   1.590pH fcheck
L2                 9         7   1.590pH fcheck
Lq                 7         0   7.920pH fcheck
B2                 9         0  jjmod area=0.50
B1                 8         0  jjmod area=0.50
.ends

*** top cell: maj3_16_bit_KSA
R1                55        87  1000.00ohm
R2                58        88  1000.00ohm
R3                73        89  1000.00ohm
R4                68        90  1000.00ohm
R0                28        91  1000.00ohm
R6                65        92  1000.00ohm
R7                83        93  1000.00ohm
R8                78        94  1000.00ohm
R9                74        95  1000.00ohm
R10               72        96  1000.00ohm
R11               77        97  1000.00ohm
R12                7        98  1000.00ohm
R13               99       100  1000.00ohm
R14               60       101  1000.00ohm
R15               17       102  1000.00ohm
R5                76       103  1000.00ohm
R30               53       104  1000.00ohm
R22               67       105  1000.00ohm
R21               62       106  1000.00ohm
R23               57       107  1000.00ohm
R29               79       108  1000.00ohm
R27               66       109  1000.00ohm
R20               69       110  1000.00ohm
R26               56       111  1000.00ohm
R19               59       112  1000.00ohm
R18               52       113  1000.00ohm
R25               54       114  1000.00ohm
R17               75       115  1000.00ohm
R24               81       116  1000.00ohm
R16               70       117  1000.00ohm
R31               86       118  1000.00ohm
R28                8       119  1000.00ohm
R33              120        80  100000.00ohm
R32              121       122  100000.00ohm
R34              123       124  100000.00ohm
XI3048            bfr        125        126        127        128        129        130
XI3047            bfr        117        131        132        133        134        135
XI3046            bfr        136        137        138        125        139        140
XI3045            bfr        141        142        143        144        145        146
XI3044            bfr        144        138        147        148        140        149
XI3043            bfr         91        132        143        141        135        149
XI3042            bfr        148        127        147        150        130        146
XI3041            bfr        133        151        142        136        152        145
XI3040            bfr        153        154        155        156        157        158
XI3039            bfr        115        159        160        161        162        163
XI3038            bfr        164        165        166        153        167        168
XI3037            bfr        169        170        151        171        172        152
XI3036            bfr        171        166        137        173        168        139
XI3035            bfr         87        160        131        169        163        134
XI3034            bfr        173        155        126        174        158        129
XI3033            bfr        161        175        170        164        176        172
XI3032            bfr        177        178        179        180        181        182
XI3031            bfr        113        183        184        185        186        187
XI3030            bfr        188        189        190        177        191        192
XI3029            bfr        193        194        175        195        196        176
XI3028            bfr        195        190        165        197        192        167
XI3027            bfr         88        184        159        193        187        162
XI3026            bfr        197        179        154        198        182        157
XI3025            bfr        185        199        194        188        200        196
XI3024            bfr        201        202        203        204        205        206
XI3023            bfr        112        207        208        209        210        211
XI3022            bfr        212        213        214        201        215        216
XI3021            bfr        217        218        199        219        220        200
XI3020            bfr        219        214        189        221        216        191
XI3019            bfr         89        208        183        217        211        186
XI3018            bfr        221        203        178        222        206        181
XI3017            bfr        209        223        218        212        224        220
XI3016            bfr        225        226        227        228        229        230
XI3015            bfr        110        231        232        233        234        235
XI3014            bfr        236        237        238        225        239        240
XI3013            bfr        241        242        223        243        244        224
XI3012            bfr        243        238        213        245        240        215
XI3011            bfr         90        232        207        241        235        210
XI3010            bfr        245        227        202        246        230        205
XI3009            bfr        233        247        242        236        248        244
XI3008            bfr        249        250        251        252        253        254
XI3007            bfr        106        255        256        257        258        259
XI3006            bfr        260        261        262        249        263        264
XI3005            bfr        265        266        247        267        268        248
XI3004            bfr        267        262        237        269        264        239
XI3003            bfr        103        256        231        265        259        234
XI3002            bfr        269        251        226        270        254        229
XI3001            bfr        257        271        266        260        272        268
XI3000            bfr        273        274        275        276        277        278
XI2999            bfr        105        279        280        281        282        283
XI2998            bfr        284        285        286        273        287        288
XI2997            bfr        289        290        271        291        292        272
XI2996            bfr        291        286        261        293        288        263
XI2995            bfr         92        280        255        289        283        258
XI2994            bfr        293        275        250        294        278        253
XI2993            bfr        281        295        290        284        296        292
XI2992            bfr        297        298        299        300        301        302
XI2991            bfr        107        303        304        305        306        307
XI2990            bfr        308        309        310        297        311        312
XI2989            bfr        313        314        295        315        316        296
XI2924            bfr        317        318        319        320        321        322
XI2923            bfr        323        318        324        317        124        325
XI2922            bfr        118         80        326        323        122        327
XI2921            bfr        320        328        329        330        331        332
XI2946            bfr        333        334        335        336        337        338
XI2947            bfr         98        339        340        341        342        343
XI2948            bfr        344        345        346        333        347        348
XI2949            bfr        341        349        350        344        351        352
XI2950            bfr        353        354        345        355        356        347
XI2951            bfr        119        357        339        358        359        342
XI2952            bfr        355        360        334        361        362        337
XI2953            bfr        363        350        364        365        352        366
XI2954            bfr        367        368        369        370        371        372
XI2955            bfr         97        373        374        375        376        377
XI2956            bfr        378        379        380        367        381        382
XI2957            bfr        375        364        383        378        366        384
XI2958            bfr        365        346        379        385        348        381
XI2959            bfr        109        340        373        363        343        376
XI2960            bfr        385        335        368        386        338        371
XI2961            bfr        387        383        388        389        384        390
XI2962            bfr        391        392        393        394        395        396
XI2963            bfr         96        397        398        399        400        401
XI2964            bfr        402        403        404        391        405        406
XI2965            bfr        399        388        407        402        390        408
XI2966            bfr        389        380        403        409        382        405
XI2967            bfr        111        374        397        387        377        400
XI2968            bfr        409        369        392        410        372        395
XI2969            bfr        411        407        412        413        408        414
XI2970            bfr        415        416        417        418        419        420
XI2971            bfr         95        421        422        423        424        425
XI2972            bfr        426        427        428        415        429        430
XI2973            bfr        423        412        431        426        414        432
XI2974            bfr        413        404        427        433        406        429
XI2975            bfr        114        398        421        411        401        424
XI2976            bfr        433        393        416        434        396        419
XI2977            bfr        435        431        436        437        432        438
XI2978            bfr        439        440        298        441        442        301
XI2979            bfr         94        443        303        444        445        306
XI2980            bfr        446        447        309        439        448        311
XI2981            bfr        444        436        449        446        438        450
XI2982            bfr        437        428        447        451        430        448
XI2983            bfr        116        422        443        435        425        445
XI2984            bfr        451        417        440        452        420        442
XI2985            bfr        305        449        314        308        450        316
XI2986            bfr        453        299        274        454        302        277
XI2987            bfr         93        304        279        313        307        282
XI2988            bfr        315        310        285        453        312        287
XI2945            bfr        358        455        349        353        456        351
XI2926            bfr        457        319        458        459        322        460
XI2927            bfr        102        326        461        462        327        463
XI2928            bfr        459        329        464        465        332        466
XI2929            bfr        467        468        469        470        471        472
XI2930            bfr        473        474        475        476        477        478
XI2931            bfr        101        479        480        481        482        483
XI2932            bfr        484        485        486        473        487        488
XI2933            bfr        481        469        489        484        472        490
XI2934            bfr        470        458        485        491        460        487
XI2935            bfr        104        461        479        467        463        482
XI2936            bfr        491        464        474        492        466        477
XI2937            bfr        493        489        494        495        490        496
XI2938            bfr        497        498        360        499        500        362
XI2939            bfr        100        501        357        502        503        359
XI2940            bfr        504        505        354        497        506        356
XI2941            bfr        502        494        455        504        496        456
XI2942            bfr        495        486        505        507        488        506
XI2943            bfr        108        480        501        493        483        503
XI2944            bfr        507        475        498        508        478        500
XI2925            bfr        462        324        468        457        325        471
XI2856            bfr        509        510        511        512        513        514
XI2855            bfr        515        510        516        509        517        518
XI2854            bfr        519        520        521        515        513        522
XI2852            bfr        523        524        525        526        527          0
*** ("528") mapped to 0
XI2851            bfr        529        530        531        523        532        533
XI2850            bfr        534        535        531        529        536        537
XI2848            bfr        538        539        524        540        541        527
XI2847            bfr        542        543        530        538        544        532
XI2846            bfr        545        546        535        542        547        536
XI2844            bfr        548        549        539        550        551        541
XI2843            bfr        552        553        543        548        554        544
XI2842            bfr        555        556        546        552        557        547
XI2840            bfr        558        559        549        560        561        551
XI2839            bfr        562        563        553        558        564        554
XI2838            bfr        565        566        556        562        567        557
XI2836            bfr        568        569        559        570        571        561
XI2835            bfr        572        573        563        568        574        564
XI2834            bfr        575        576        566        572        577        567
XI2832            bfr        578        579        569        580        581        571
XI2831            bfr        582        583        573        578        584        574
XI2830            bfr        585        586        576        582        587        577
XI2828            bfr        588        589        579        590        591        581
XI2827            bfr        592        593        583        588        594        584
XI2826            bfr        595        596        586        592        597        587
XI2824            bfr        598        599        589        600        601        591
XI2823            bfr        602        603        593        598        604        594
XI2822            bfr        605        606        596        602        607        597
XI2820            bfr        608        609        599        610        611        601
XI2819            bfr        612        613        603        608        614        604
XI2818            bfr        615        616        606        612        617        607
XI2816            bfr        618        619        609        620        621        611
XI2815            bfr        622        623        613        618        624        614
XI2814            bfr        625        626        616        622        627        617
XI2812            bfr        628        629        619        630        631        621