.model             jjmod                    jj(Rtype=1,  Vg=2.8mV,    Cap=0.064pF,  R0=100ohm,  Rn=17ohm,  Icrit=0.1mA)


.subckt            and_bb                   1            2            3             4           12         13             14
*inst name         cell_name                a            b            din           dout        q          xin            xout
XI0                bfr                      1            3            8             9           13         5
XI2                bfr                      2            11           4             10          7          14
XI3                branch3                  9            6            10            12
XI1                const0                   8            11           6             5           7
.ends


.subckt            bfr                      1            2            3             12          13         14
*inst name         cell_name                a            din          dout          q           xin        xout
B1                 9                        0            jjmod        area=0.5
B2                 5                        0            jjmod        area=0.5
Kd1                Ld                       L1           -0.133
Kd2                Ld                       L2           -0.133
Kdout              Ld                       Lout         0.0
Kdq                Ld                       Lq           0.0
Kout               Lq                       Lout         -0.495
Kx1                Lx                       L1           -0.186
Kx2                Lx                       L2           -0.186
Kxd                Lx                       Ld           0.19
Kxout              Lx                       Lout         0.0
Kxq                Lx                       Lq           0.0
L1                 8                        9            1.59pH
L2                 5                        8            1.59pH
Ld                 2                        3            7.45pH
Lin                1                        8            1.23pH
Lout               6                        12           31.2pH
Lq                 8                        0            7.92pH
Lx                 13                       14           7.4pH
R1                 6                        0            1e-12ohm
.ends


.subckt            bfrL                     1            2            3             12          13         14
*inst name         cell_name                a            din          dout          q           xin        xout
B1                 9                        0            jjmod        area=1.0
B2                 5                        0            jjmod        area=1.0
Kd1                Ld                       L1           -0.135
Kd2                Ld                       L2           -0.135
Kdout              Ld                       Lout         0.0
Kdq                Ld                       Lq           0.0
Kout               Lq                       Lout         -0.495
Kx1                Lx                       L1           -0.187
Kx2                Lx                       L2           -0.187
Kxd                Lx                       Ld           0.192
Kxout              Lx                       Lout         0.0
Kxq                Lx                       Lq           0.0
L1                 8                        9            1.59pH
L2                 5                        8            1.59pH
Ld                 2                        3            7.43pH
Lin                1                        8            1.24pH
Lout               6                        12           31.1pH
Lq                 8                        0            7.92pH
Lx                 13                       14           7.38pH
R1                 6                        0            1e-12ohm
.ends


.subckt            bias_pair_10um           1            2            3             4
*inst name         cell_name                a            b            c             d
*C0                 2                        0            0.00145pF
*C6                 4                        0            0.00144pF
L0                 1                        2            3.46pH
L1                 3                        4            3.73pH
.ends


.subckt            bias_pair_20um           1            2            3             4
*inst name         cell_name                a            b            c             d
XI0                bias_pair_10um           1            6            3             5
XI1                bias_pair_10um           6            2            5             4
.ends


.subckt            branch2                  1            2            3
*inst name         cell_name                a            b            c
Lip                6                        3            0.282pH
Lp1                1                        5            11.0pH
Lp2                2                        4            11.0pH
R0                 5                        6            1e-12ohm
R1                 4                        6            1e-12ohm
.ends


.subckt            branch3                  1            2            3             4
*inst name         cell_name                a            b            c             d
Lip                7                        4            0.312pH
Lp1                1                        6            11.8pH
Lp2                2                        7            10.2pH
Lp3                3                        5            11.8pH
R0                 6                        7            1e-12ohm
R1                 5                        7            1e-12ohm
.ends


.subckt            const0                   1            2            11            12          13
*inst name         cell_name                din          dout         q             xin         xout
B1                 8                        0            jjmod        area=0.5
B2                 4                        0            jjmod        area=0.5
Kd1                Ld                       L1           -0.128
Kd2                Ld                       L2           -0.135
Kdout              Ld                       Lout         -0.000253
Kdq                Ld                       Lq           -0.00468
Kout               Lq                       Lout         -0.495
Kx1                Lx                       L1           -0.185
Kx2                Lx                       L2           -0.189
Kxd                Lx                       Ld           0.193
Kxout              Lx                       Lout         -7.94e-05
Kxq                Lx                       Lq           -0.00421
L1                 7                        8            1.56pH
L2                 4                        7            1.66pH
Ld                 1                        2            7.49pH
Lout               5                        11           31.2pH
Lq                 7                        0            7.82pH
Lx                 12                       13           7.47pH
R1                 5                        0            1e-12ohm
.ends


.subckt            const1                   1            2            7             8           9
*inst name         cell_name                din          dout         q             xin         xout
L1                 8                        4            0.01pH
L2                 6                        9            0.01pH
L3                 1                        3            0.01pH
L4                 5                        2            0.01pH
XI0                const0                   5            3            7             6           4
.ends


.subckt            inv                      1            2            3             12          13         14
*inst name         cell_name                a            din          dout          q           xin        xout
B1                 9                        0            jjmod        area=0.6
B2                 5                        0            jjmod        area=0.6
Kd1                Ld                       L1           -0.133
Kd2                Ld                       L2           -0.133
Kdout              Ld                       Lout         0.0
Kdq                Ld                       Lq           0.0
Kout               Lq                       Lout         0.432
Kx1                Lx                       L1           -0.186
Kx2                Lx                       L2           -0.186
Kxd                Lx                       Ld           0.19
Kxout              Lx                       Lout         0.0
Kxq                Lx                       Lq           0.0
L1                 8                        9            1.59pH
L2                 5                        8            1.59pH
Ld                 2                        3            7.44pH
Lin                1                        8            1.24pH
Lout               6                        12           31.0pH
Lq                 8                        0            6.49pH
Lx                 13                       14           7.39pH
R1                 6                        0            1e-12ohm
.ends


.subckt            maj_bbb                  1            2            3             4           5          13             14         15
*inst name         cell_name                a            b            c             din         dout       q              xin        xout
XI0                bfr                      1            4            8             11          14         6
XI1                bfr                      2            8            10            12          6          7
XI2                bfr                      3            10           5             9           7          15
XI3                branch3                  11           12           9             13
.ends


.subckt            maj_bbi                  1            2            3             4           5          13             14         15
*inst name         cell_name                a            b            c             din         dout       q              xin        xout
XI0                bfr                      1            4            9             11          14         6
XI1                bfr                      2            9            12            7           6          8
XI3                branch3                  11           7            10            13
XI2                inv                      3            12           5             10          8          15
.ends


.subckt            maj_ibb                  1            2            3             4           5          13             14         15
*inst name         cell_name                a            b            c             din         dout       q              xin        xout
XI1                bfr                      2            8            10            12          6          7
XI2                bfr                      3            10           5             9           7          15
XI3                branch3                  11           12           9             13
XI0                inv                      1            4            8             11          14         6
.ends


.subckt            or_bb                    1            2            3             4           12         13             14
*inst name         cell_name                a            b            din           dout        q          xin            xout
XI0                bfr                      1            3            8             9           13         5
XI2                bfr                      2            11           4             10          6          14
XI3                branch3                  9            7            10            12
XI1                const1                   8            11           7             5           6
.ends


.subckt            sink                     1            2            3             10          11
*inst name         cell_name                a            din          dout          xin         xout
B1                 8                        0            jjmod        area=0.5
B2                 5                        0            jjmod        area=0.5
Kd1                Ld                       L1           -0.133
Kd2                Ld                       L2           -0.133
Kdq                Ld                       Lq           0.0
Kx1                Lx                       L1           -0.186
Kx2                Lx                       L2           -0.186
Kxd                Lx                       Ld           0.19
Kxq                Lx                       Lq           0.0
L1                 7                        8            1.59pH
L2                 5                        7            1.59pH
Ld                 2                        3            7.45pH
Lin                1                        7            1.23pH
Lq                 7                        0            7.92pH
Lx                 10                       11           7.4pH
.ends


.subckt            spl2                     1            2            3             9           10         11             12
*inst name         cell_name                a            din          dout          x           xin        xout           y
XI0                bfr                      1            4            6             7           8          5
XI14               bias_pair_10um           10           8            2             4
XI15               bias_pair_10um           5            11           6             3
XI1                branch2                  9            12           7
.ends


.subckt            spl3L                    1            2            3             9           10         11             12         13
*inst name         cell_name                a            din          dout          x           xin        xout           y          z
XI0                bfrL                     1            4            6             7           8          5
XI14               bias_pair_20um           10           8            2             4
XI15               bias_pair_20um           5            11           6             3
XI1                branch3                  9            12           13            7
.ends


.subckt            maj3_KSA_GP_ene_opt      1            2            3             4           5          6              7          8     9         10        11         12
*inst name         cell_name                G            P            a             ac_in<0>    ac_in<1>   ac_out<0>      ac_out<1>  b     dc_in<0>  dc_in<1>  dc_out<0>  dc_out<1>
XI9                and_bb                   13           14           19            9           1          20             4
XI10               or_bb                    18           16           11            19          2          6              20
XI11               spl2                     3            10           17            14          5          15             16
XI12               spl2                     8            17           12            13          15         7              18
.ends


.subckt            maj3_KSA_sum_ene_opt     1            2            3             4           5          6              7          8     9         10        11         12         13         14         15         34
*inst name         cell_name                a            ac_in<0>     ac_in<1>      ac_in<2>    ac_out<0>  ac_out<1>      ac_out<2>  b     c         dc_in<0>  dc_in<1>   dc_in<2>   dc_out<0>  dc_out<1>  dc_out<2>  sum
XI3                bfr                      27           30           14            18          29         6
XI0                maj_bbb                  24           17           31            11          28         33             3          26
XI1                maj_bbi                  25           23           32            28          30         16             26         29
XI2                maj_ibb                  33           16           18            10          13         34             2          5
XI16               spl2                     8            22           21            17          19         20             23
XI6                spl2                     1            12           22            24          4          19             25
XI4                spl3L                    9            21           15            31          20         7              32         27
.ends


*this is top cell  maj3_16_bit_KSA_ene_opt
R0                 2888                     2541         1000.0ohm
R1                 1598                     2507         1000.0ohm
R10                529                      2878         1000.0ohm
R11                1380                     2914         1000.0ohm
R12                627                      2955         1000.0ohm
R13                1864                     2670         1000.0ohm
R14                704                      2748         1000.0ohm
R15                850                      2767         1000.0ohm
R16                1668                     2564         1000.0ohm
R17                108                      2525         1000.0ohm
R18                318                      2485         1000.0ohm
R19                929                      2435         1000.0ohm
R2                 3418                     2464         1000.0ohm
R20                1072                     2375         1000.0ohm
R21                928                      2054         1000.0ohm
R22                1667                     3045         1000.0ohm
R23                782                      3004         1000.0ohm
R24                2                        2788         1000.0ohm
R25                217                      2818         1000.0ohm
R26                1013                     2861         1000.0ohm
R27                1126                     2895         1000.0ohm
R28                1443                     2934         1000.0ohm
R29                1200                     2653         1000.0ohm
R3                 3901                     2413         1000.0ohm
R30                2386                     2683         1000.0ohm
R31                1519                     2973         1000.0ohm
R4                 1736                     2347         1000.0ohm
R5                 4003                     1883         1000.0ohm
R6                 1818                     3024         1000.0ohm
R7                 4093                     2780         1000.0ohm
R8                 1282                     2808         1000.0ohm
R9                 422                      2836         1000.0ohm
Rac1               2035                     4199         100000.0ohm
Rac2               2188                     4202         100000.0ohm
Rdc                2095                     2387         100000.0ohm
V0                 2888                     0            PWL          (0ps          0mv         20ps       {input[31]}V)
V1                 1598                     0            PWL          (0ps          0mv         20ps       {input[29]}V)
V10                529                      0            PWL          (0ps          0mv         20ps       {input[11]}V)
V11                1380                     0            PWL          (0ps          0mv         20ps       {input[9]}V)
V12                627                      0            PWL          (0ps          0mv         20ps       {input[7]}V)
V13                1864                     0            PWL          (0ps          0mv         20ps       {input[5]}V)
V14                704                      0            PWL          (0ps          0mv         20ps       {input[3]}V)
V15                850                      0            PWL          (0ps          0mv         20ps       {input[1]}V)
V16                1668                     0            PWL          (0ps          0mv         20ps       {input[30]}V)
V17                108                      0            PWL          (0ps          0mv         20ps       {input[28]}V)
V18                318                      0            PWL          (0ps          0mv         20ps       {input[26]}V)
V19                929                      0            PWL          (0ps          0mv         20ps       {input[24]}V)
V2                 3418                     0            PWL          (0ps          0mv         20ps       {input[27]}V)
V20                1072                     0            PWL          (0ps          0mv         20ps       {input[22]}V)
V21                928                      0            PWL          (0ps          0mv         20ps       {input[20]}V)
V22                1667                     0            PWL          (0ps          0mv         20ps       {input[18]}V)
V23                782                      0            PWL          (0ps          0mv         20ps       {input[16]}V)
V24                2                        0            PWL          (0ps          0mv         20ps       {input[14]}V)
V25                217                      0            PWL          (0ps          0mv         20ps       {input[12]}V)
V26                1013                     0            PWL          (0ps          0mv         20ps       {input[10]}V)
V27                1126                     0            PWL          (0ps          0mv         20ps       {input[8]}V)
V28                1443                     0            PWL          (0ps          0mv         20ps       {input[6]}V)
V29                1200                     0            PWL          (0ps          0mv         20ps       {input[4]}V)
V3                 3901                     0            PWL          (0ps          0mv         20ps       {input[25]}V)
V30                2386                     0            PWL          (0ps          0mv         20ps       {input[2]}V)
V31                1519                     0            PWL          (0ps          0mv         20ps       {input[0]}V)
V4                 1736                     0            PWL          (0ps          0mv         20ps       {input[23]}V)
V5                 4003                     0            PWL          (0ps          0mv         20ps       {input[21]}V)
V6                 1818                     0            PWL          (0ps          0mv         20ps       {input[19]}V)
V7                 4093                     0            PWL          (0ps          0mv         20ps       {input[17]}V)
V8                 1282                     0            PWL          (0ps          0mv         20ps       {input[15]}V)
V9                 422                      0            PWL          (0ps          0mv         20ps       {input[13]}V)
Vdc                2095                     0            PWL          (0ps          0mV         20ps       113000mV)
V32                2035                     0            SIN          (0            81000mV     5GHz       100ps          0)
V33                2188                     0            SIN          (0            81000mV     5GHz       50ps           0)
XI2248             and_bb                   4042         1099         3568          3573        3571       3566           3572
XI2249             and_bb                   1803         550          3573          690         3574       3572           739
XI2257             and_bb                   825          2894         3583          3587        3268       3582           3586
XI2258             and_bb                   566          612          3587          3904        3588       3586           3903
XI2266             and_bb                   1235         1101         3271          3276        3274       3270           3275
XI2267             and_bb                   1225         611          3276          3911        3277       3275           3910
XI2274             and_bb                   873          4144         3284          3290        3288       3283           3289
XI2285             and_bb                   561          582          3290          3941        3298       3289           3939
XI2292             and_bb                   551          4142         3307          3310        3308       3306           3309
XI2294             and_bb                   600          4039         3310          3953        3311       3309           3952
XI2301             and_bb                   603          1085         3321          3324        3322       3320           3323
XI2303             and_bb                   604          62           3324          3965        3326       3323           3964
XI2310             and_bb                   767          1103         3337          3341        3338       3336           3339
XI2312             and_bb                   819          1105         3341          3978        3342       3339           3977
XI2319             and_bb                   768          42           3354          3358        3355       3353           3357
XI2321             and_bb                   769          1401         3358          3989        3359       3357           3988
XI2356             and_bb                   802          450          3428          4018        3424       3427           4017
XI2357             and_bb                   435          449          3437          4051        3434       3438           4050
XI2432             and_bb                   438          459          3368          3068        3369       3367           3067
XI2433             and_bb                   437          458          3375          4007        3373       3376           4006
XI3324             and_bb                   1219         431          1790          2933        1788       1789           2935
XI3325             and_bb                   1308         1222         1798          2964        1807       1797           2965
XI3326             and_bb                   941          937          1821          2986        1028       1820           2989
XI3327             and_bb                   965          960          1841          2528        1017       1840           2530
XI3328             and_bb                   975          904          1850          2549        1473       1849           2550
XI3329             and_bb                   922          918          1863          2566        880        1862           2567
XI3330             and_bb                   990          988          1882          2395        2033       1881           2397
XI3331             and_bb                   840          1000         2044          2486        1884       2042           2487
XI3332             and_bb                   867          849          2187          2379        1854       2186           2380
XI3333             and_bb                   1508         1496         1355          2266        1485       1344           2267
XI3334             and_bb                   1996         1976         1847          2284        1965       1843           2285
XI3335             and_bb                   780          886          1015          2992        1018       1012           3041
XI3336             and_bb                   897          655          1031          4004        1040       1030           4011
XI3337             and_bb                   978          964          733           2235        955        722            2238
XI3338             and_bb                   853          852          3772          3551        1707       3758           3550
XI3339             and_bb                   858          872          3873          3560        1530       3872           3561
XI3340             and_bb                   857          681          3661          3636        3528       3652           3629
XI3341             and_bb                   734          679          3636          3527        1653       3629           3525
XI3342             and_bb                   682          935          3541          1610        3509       3537           1553
XI3343             and_bb                   953          902          1610          3515        1646       1553           3516
XI3344             and_bb                   915          583          3508          1669        3500       3503           1659
XI3345             and_bb                   639          594          1669          3502        1702       1659           3501
XI3346             and_bb                   912          822          3466          3404        3490       3462           3397
XI3347             and_bb                   981          821          3404          3480        899        3397           3479
XI3348             and_bb                   917          996          3362          923         3477       3356           906
XI3349             and_bb                   983          834          923           3498        1022       906            3499
XI3350             and_bb                   950          788          3265          984         3465       3263           1014
XI3351             and_bb                   1190         957          984           3472        971        1014           3473
XI3352             and_bb                   1005         787          3255          1122        3476       3248           1148
XI3353             and_bb                   845          832          1122          3461        1112       1148           3460
XI3354             and_bb                   972          705          980           1159        1166       911            1154
XI3355             and_bb                   903          1954         1159          1156        1178       1154           1155
XI3356             and_bb                   663          1931         434           1193        1149       423            1294