**** **** **** **** **** **** **** **** **** **** **** 
*JSIM control file for CADENCE by kameda@cq.jp.nec.com
**** **** **** **** **** **** **** **** **** **** ****

*JSIM model
**HSTP**
.model jjmod jj(Rtype=1, Vg=2.8mV, Cap=0.064pF, R0=100ohm, Rn=17ohm, Icrit=0.1mA)
**OPEN**
*.model jjmod jj(Rtype=1, Vg=2.8mV, Cap=0.218pF, R0=200ohm, Rn=17ohm, Icrit=0.1mA)


*** netlist file ***
**** **** **** **** **** **** **** ****+
*** Lib : hstp_ttanaka_lib
*** Cell: maj3_16_bit_KSA
*** View: schematic
*** Feb  5 18:24:52 2022
**** **** **** **** **** **** **** ****

*** bfr
.subckt bfr          1          2          3          4          5          6
***         a       din      dout         q       xin      xout
Kxout              Lx       Lout 0.000
Kd1                Ld         L1 -0.133
Kxq                Lx         Lq 0.000
Kdout              Ld       Lout 0.000
Kxd                Lx         Ld 0.190
Kdq                Ld         Lq 0.000
Kd2                Ld         L2 -0.133
Kx1                Lx         L1 -0.186
Kx2                Lx         L2 -0.186
Kout               Lq       Lout -0.495
Ld                 2         3   7.450pH fcheck
Lx                 5         6   7.400pH fcheck
Lin                1         7   1.230pH fcheck
L1                 7         8   1.590pH fcheck
L2                 9         7   1.590pH fcheck
Lout              10         4  31.200pH fcheck
Lq                 7         0   7.920pH fcheck
R1                10         0   1.000pohm
B2                 9         0  jjmod area=0.50
B1                 8         0  jjmod area=0.50
.ends

*** branch3
.subckt branch3          1         11         12         13
***         a         b         c         d
Lip                9        13   0.312pH fcheck
Lp3               12        14  11.800pH fcheck
Lp2               11         9  10.200pH fcheck
Lp1                1        15  11.800pH fcheck
R0                15         9   1.000pohm
R1                14         9   1.000pohm
.ends

*** const0
.subckt const0          2          3          4          5          6
***       din      dout         q       xin      xout
Kxout              Lx       Lout -0.000
Kd1                Ld         L1 -0.128
Kxq                Lx         Lq -0.004
Kdout              Ld       Lout -0.000
Kxd                Lx         Ld 0.193
Kdq                Ld         Lq -0.005
Kd2                Ld         L2 -0.135
Kx1                Lx         L1 -0.185
Kx2                Lx         L2 -0.189
Kout               Lq       Lout -0.495
Ld                 2         3   7.490pH fcheck
Lx                 5         6   7.470pH fcheck
L1                 7         8   1.560pH fcheck
L2                 9         7   1.660pH fcheck
Lout              10         4  31.200pH fcheck
Lq                 7         0   7.820pH fcheck
R1                10         0   1.000pohm
B2                 9         0  jjmod area=0.50
B1                 8         0  jjmod area=0.50
.ends

*** const1
.subckt const1          2          3          4          5          6
***       din      dout         q       xin      xout
L1                 5        16   0.010pH fcheck
L2                17         6   0.010pH fcheck
L3                 2        18   0.010pH fcheck
L4                19         3   0.010pH fcheck
XI0            const0         19         18          4         17         16
.ends

*** or_bb
.subckt or_bb          1         11          2          3          4          5          6
***         a         b       din      dout         q       xin      xout
XI3           branch3         16         20         21          4
XI1            const1         22         23         20         24         25
XI2               bfr         11         23          3         21         25          6
XI0               bfr          1          2         22         16          5         24
.ends

*** and_bb
.subckt and_bb          1         11          2          3          4          5          6
***         a         b       din      dout         q       xin      xout
XI3           branch3         16         26         21          4
XI1            const0         20         23         26         24         25
XI2               bfr         11         23          3         21         25          6
XI0               bfr          1          2         20         16          5         24
.ends

*** maj_bbb
.subckt maj_bbb          1         11         12          2          3          4          5          6
***         a         b         c       din      dout         q       xin      xout
XI3           branch3         16         23         22          4
XI2               bfr         12         27          3         22         25          6
XI1               bfr         11         20         27         23         24         25
XI0               bfr          1          2         20         16          5         24
.ends

*** bias_pair_10um
.subckt bias_pair_10um          1         11         12         13
***         a         b         c         d
L1                12        13   3.730pH fcheck
L0                 1        11   3.460pH fcheck
C6                13         0   0.001pF
C0                11         0   0.001pF
.ends

*** bias_pair_20um
.subckt bias_pair_20um          1         11         12         13
***         a         b         c         d
XI1        bias_pair_10um         28         11         29         13
XI0        bias_pair_10um          1         28         12         29
.ends

*** bfrL
.subckt bfrL          1          2          3          4          5          6
***         a       din      dout         q       xin      xout
Kxout              Lx       Lout 0.000
Kd1                Ld         L1 -0.135
Kxq                Lx         Lq 0.000
Kdout              Ld       Lout 0.000
Kxd                Lx         Ld 0.192
Kdq                Ld         Lq 0.000
Kd2                Ld         L2 -0.135
Kx1                Lx         L1 -0.187
Kx2                Lx         L2 -0.187
Kout               Lq       Lout -0.495
Ld                 2         3   7.430pH fcheck
Lx                 5         6   7.380pH fcheck
Lin                1         7   1.240pH fcheck
L1                 7         8   1.590pH fcheck
L2                 9         7   1.590pH fcheck
Lout              10         4  31.100pH fcheck
Lq                 7         0   7.920pH fcheck
R1                10         0   1.000pohm
B2                 9         0  jjmod area=1.00
B1                 8         0  jjmod area=1.00
.ends

*** spl3L
.subckt spl3L          1          2          3         30          5          6         31         32
***         a       din      dout         x       xin      xout         y         z
XI14       bias_pair_20um          5         33          2         24
XI15       bias_pair_20um         26          6         25          3
XI0              bfrL          1         24         25         16         33         26
XI1           branch3         30         31         32         16
.ends

*** branch2
.subckt branch2          1         11         12
***         a         b         c
Lip                9        12   0.282pH fcheck
Lp2               11        14  11.000pH fcheck
Lp1                1        15  11.000pH fcheck
R0                15         9   1.000pohm
R1                14         9   1.000pohm
.ends

*** spl2
.subckt spl2          1          2          3         30          5          6         31
***         a       din      dout         x       xin      xout         y
XI0               bfr          1         24         25         16         33         26
XI14       bias_pair_10um          5         33          2         24
XI15       bias_pair_10um         26          6         25          3
XI1           branch2         30         31         16
.ends

*** inv
.subckt inv          1          2          3          4          5          6
***         a       din      dout         q       xin      xout
Kxout              Lx       Lout 0.000
Kd1                Ld         L1 -0.133
Kxq                Lx         Lq 0.000
Kdout              Ld       Lout 0.000
Kxd                Lx         Ld 0.190
Kdq                Ld         Lq 0.000
Kd2                Ld         L2 -0.133
Kx1                Lx         L1 -0.186
Kx2                Lx         L2 -0.186
Kout               Lq       Lout 0.432
Ld                 2         3   7.440pH fcheck
Lx                 5         6   7.390pH fcheck
Lin                1         7   1.240pH fcheck
L1                 7         8   1.590pH fcheck
L2                 9         7   1.590pH fcheck
Lout              10         4  31.000pH fcheck
Lq                 7         0   6.490pH fcheck
R1                10         0   1.000pohm
B2                 9         0  jjmod area=0.60
B1                 8         0  jjmod area=0.60
.ends

*** maj_bbi
.subckt maj_bbi          1         11         12          2          3          4          5          6
***         a         b         c       din      dout         q       xin      xout
XI3           branch3         16         26         22          4
XI1               bfr         11         20         23         26         24         25
XI0               bfr          1          2         20         16          5         24
XI2               inv         12         23          3         22         25          6
.ends

*** maj_ibb
.subckt maj_ibb          1         11         12          2          3          4          5          6
***         a         b         c       din      dout         q       xin      xout
XI3           branch3         16         23         22          4
XI0               inv          1          2         20         16          5         24
XI2               bfr         12         27          3         22         25          6
XI1               bfr         11         20         27         23         24         25
.ends

*** maj3_KSA_sum
.subckt maj3_KSA_sum          1         34         35         36         37         38         39         40         41         11         12         42         43         44         45         46         47         48         49         50
***         a  ac_in<0>  ac_in<1>  ac_in<2>  ac_in<3> ac_out<0> ac_out<1> ac_out<2> ac_out<3>         b         c  dc_in<0>  dc_in<1>  dc_in<2>  dc_in<3> dc_out<0> dc_out<1> dc_out<2> dc_out<3>       sum
XI7               bfr         51         52         48         53         54         40
XI17              bfr         55         56         57         58         59         60
XI3               bfr         53         61         47         62         63         39
XI13              bfr         64         65         66         67         68         69
XI14              bfr         70         44         65         71         36         68
XI15              bfr         17         66         56         28         69         59
XI9               bfr          7         57         72         73         60         74
XI8               bfr         75         72         52         76         74         54
XI4             spl3L         12         77         49          7         78         41         75         51
XI6              spl2          1         45          8         70         37         79         64
XI16             spl2         11          8         77         17         79         78         55
XI1           maj_bbi         67         58         76         80         61         81         82         63
XI0           maj_bbb         71         28         73         43         80         83         35         82
XI2           maj_ibb         83         81         62         42         46         50         34         38
.ends

*** spl2L
.subckt spl2L          1          2          3         30          5          6         31
***         a       din      dout         x       xin      xout         y
XI1           branch2         30         31         16
XI14       bias_pair_10um          5         33          2         24
XI15       bias_pair_10um         26          6         25          3
XI0              bfrL          1         24         25         16         33         26
.ends

*** maj3_KSA_GP
.subckt maj3_KSA_GP         84         85          1         34         35         36         38         39         40         11         42         43         44         46         47         48
***         G         P         a  ac_in<0>  ac_in<1>  ac_in<2> ac_out<0> ac_out<1> ac_out<2>         b  dc_in<0>  dc_in<1>  dc_in<2> dc_out<0> dc_out<1> dc_out<2>
XI8               bfr         54         69         47         86         56         39
XI7               bfr         75         17         69         79         57         56
XI6               bfr         58         74         17         59         52         57
XI5               bfr         28         43         74          7         35         52
XI10            or_bb         59         86         70         46         85         55         38
XI4             spl2L         11         67         48         75         62         40         54
XI3             spl2L          1         44         67         28         36         62         58
XI9            and_bb          7         79         42         70         84         34         55
.ends

*** sink
.subckt sink          1          2          3          5          6
***         a       din      dout       xin      xout
Kd1                Ld         L1 -0.133
Kxq                Lx         Lq 0.000
Kxd                Lx         Ld 0.190
Kdq                Ld         Lq 0.000
Kd2                Ld         L2 -0.133
Kx1                Lx         L1 -0.186
Kx2                Lx         L2 -0.186
Ld                 2         3   7.450pH fcheck
Lx                 5         6   7.400pH fcheck
Lin                1         7   1.230pH fcheck
L1                 7         8   1.590pH fcheck
L2                 9         7   1.590pH fcheck
Lq                 7         0   7.920pH fcheck
B2                 9         0  jjmod area=0.50
B1                 8         0  jjmod area=0.50
.ends

*** top cell: maj3_16_bit_KSA
R1                55        87  1000.00ohm
R2                58        88  1000.00ohm
R3                73        89  1000.00ohm
R4                68        90  1000.00ohm
R0                28        91  1000.00ohm
R6                65        92  1000.00ohm
R7                83        93  1000.00ohm
R8                78        94  1000.00ohm
R9                74        95  1000.00ohm
R10               72        96  1000.00ohm
R11               77        97  1000.00ohm
R12                7        98  1000.00ohm
R13               99       100  1000.00ohm
R14               60       101  1000.00ohm
R15               17       102  1000.00ohm
R5                76       103  1000.00ohm
R30               53       104  1000.00ohm
R22               67       105  1000.00ohm
R21               62       106  1000.00ohm
R23               57       107  1000.00ohm
R29               79       108  1000.00ohm
R27               66       109  1000.00ohm
R20               69       110  1000.00ohm
R26               56       111  1000.00ohm
R19               59       112  1000.00ohm
R18               52       113  1000.00ohm
R25               54       114  1000.00ohm
R17               75       115  1000.00ohm
R24               81       116  1000.00ohm
R16               70       117  1000.00ohm
R31               86       118  1000.00ohm
R28                8       119  1000.00ohm
R33              120       121  100000.00ohm
R32              122       123  100000.00ohm
R34              124       125  100000.00ohm
XI3048            bfr        126        127        128        129        130        131
XI3047            bfr        117        132        133        134        135        136
XI3046            bfr        137        138        139        126        140        141
XI3045            bfr        142        143        144        145        146        147
XI3044            bfr        145        139        148        149        141        150
XI3043            bfr         91        133        144        142        136        150
XI3042            bfr        149        128        148        151        131        147
XI3041            bfr        134        152        143        137        153        146
XI3040            bfr        154        155        156        157        158        159
XI3039            bfr        115        160        161        162        163        164
XI3038            bfr        165        166        167        154        168        169
XI3037            bfr        170        171        152        172        173        153
XI3036            bfr        172        167        138        174        169        140
XI3035            bfr         87        161        132        170        164        135
XI3034            bfr        174        156        127        175        159        130
XI3033            bfr        162        176        171        165        177        173
XI3032            bfr        178        179        180        181        182        183
XI3031            bfr        113        184        185        186        187        188
XI3030            bfr        189        190        191        178        192        193
XI3029            bfr        194        195        176        196        197        177
XI3028            bfr        196        191        166        198        193        168
XI3027            bfr         88        185        160        194        188        163
XI3026            bfr        198        180        155        199        183        158
XI3025            bfr        186        200        195        189        201        197
XI3024            bfr        202        203        204        205        206        207
XI3023            bfr        112        208        209        210        211        212
XI3022            bfr        213        214        215        202        216        217
XI3021            bfr        218        219        200        220        221        201
XI3020            bfr        220        215        190        222        217        192
XI3019            bfr         89        209        184        218        212        187
XI3018            bfr        222        204        179        223        207        182
XI3017            bfr        210        224        219        213        225        221
XI3016            bfr        226        227        228        229        230        231
XI3015            bfr        110        232        233        234        235        236
XI3014            bfr        237        238        239        226        240        241
XI3013            bfr        242        243        224        244        245        225
XI3012            bfr        244        239        214        246        241        216
XI3011            bfr         90        233        208        242        236        211
XI3010            bfr        246        228        203        247        231        206
XI3009            bfr        234        248        243        237        249        245
XI3008            bfr        250        251        252        253        254        255
XI3007            bfr        106        256        257        258        259        260
XI3006            bfr        261        262        263        250        264        265
XI3005            bfr        266        267        248        268        269        249
XI3004            bfr        268        263        238        270        265        240
XI3003            bfr        103        257        232        266        260        235
XI3002            bfr        270        252        227        271        255        230
XI3001            bfr        258        272        267        261        273        269
XI3000            bfr        274        275        276        277        278        279
XI2999            bfr        105        280        281        282        283        284
XI2998            bfr        285        286        287        274        288        289
XI2997            bfr        290        291        272        292        293        273
XI2996            bfr        292        287        262        294        289        264
XI2995            bfr         92        281        256        290        284        259
XI2994            bfr        294        276        251        295        279        254
XI2993            bfr        282        296        291        285        297        293
XI2992            bfr        298        299        300        301        302        303
XI2991            bfr        107        304        305        306        307        308
XI2990            bfr        309        310        311        298        312        313
XI2989            bfr        314        315        296        316        317        297
XI2924            bfr        318        319        320        321        322        323
XI2923            bfr        324        319        325        318        125        326
XI2922            bfr        118        121        327        324        123        328
XI2921            bfr        321        329        330        331        332        333
XI2946            bfr        334        335        336        337        338        339
XI2947            bfr         98        340        341        342        343        344
XI2948            bfr        345        346        347        334        348        349
XI2949            bfr        342        350        351        345        352        353
XI2950            bfr        354        355        346        356        357        348
XI2951            bfr        119        358        340        359        360        343
XI2952            bfr        356        361        335        362        363        338
XI2953            bfr        364        351        365        366        353        367
XI2954            bfr        368        369        370        371        372        373
XI2955            bfr         97        374        375        376        377        378
XI2956            bfr        379        380        381        368        382        383
XI2957            bfr        376        365        384        379        367        385
XI2958            bfr        366        347        380        386        349        382
XI2959            bfr        109        341        374        364        344        377
XI2960            bfr        386        336        369        387        339        372
XI2961            bfr        388        384        389        390        385        391
XI2962            bfr        392        393        394        395        396        397
XI2963            bfr         96        398        399        400        401        402
XI2964            bfr        403        404        405        392        406        407
XI2965            bfr        400        389        408        403        391        409
XI2966            bfr        390        381        404        410        383        406
XI2967            bfr        111        375        398        388        378        401
XI2968            bfr        410        370        393        411        373        396
XI2969            bfr        412        408        413        414        409        415
XI2970            bfr        416        417        418        419        420        421
XI2971            bfr         95        422        423        424        425        426
XI2972            bfr        427        428        429        416        430        431
XI2973            bfr        424        413        432        427        415        433
XI2974            bfr        414        405        428        434        407        430
XI2975            bfr        114        399        422        412        402        425
XI2976            bfr        434        394        417        435        397        420
XI2977            bfr        436        432        437        438        433        439
XI2978            bfr        440        441        299        442        443        302
XI2979            bfr         94        444        304        445        446        307
XI2980            bfr        447        448        310        440        449        312
XI2981            bfr        445        437        450        447        439        451
XI2982            bfr        438        429        448        452        431        449
XI2983            bfr        116        423        444        436        426        446
XI2984            bfr        452        418        441        453        421        443
XI2985            bfr        306        450        315        309        451        317
XI2986            bfr        454        300        275        455        303        278
XI2987            bfr         93        305        280        314        308        283
XI2988            bfr        316        311        286        454        313        288
XI2945            bfr        359        456        350        354        457        352
XI2926            bfr        458        320        459        460        323        461
XI2927            bfr        102        327        462        463        328        464
XI2928            bfr        460        330        465        466        333        467
XI2929            bfr        468        469        470        471        472        473
XI2930            bfr        474        475        476        477        478        479
XI2931            bfr        101        480        481        482        483        484
XI2932            bfr        485        486        487        474        488        489
XI2933            bfr        482        470        490        485        473        491
XI2934            bfr        471        459        486        492        461        488
XI2935            bfr        104        462        480        468        464        483
XI2936            bfr        492        465        475        493        467        478
XI2937            bfr        494        490        495        496        491        497
XI2938            bfr        498        499        361        500        501        363
XI2939            bfr        100        502        358        503        504        360
XI2940            bfr        505        506        355        498        507        357
XI2941            bfr        503        495        456        505        497        457
XI2942            bfr        496        487        506        508        489        507
XI2943            bfr        108        481        502        494        484        504
XI2944            bfr        508        476        499        509        479        501
XI2925            bfr        463        325        469        458        326        472
XI2856            bfr        510        511        512        513        514        515
XI2855            bfr        516        511        517        510        518        519
XI2854            bfr        520        521        522        516        514        523
XI2852            bfr        524        525        526        527        528          0
*** ("529") mapped to 0
XI2851            bfr        530        531        532        524        533        534
XI2850            bfr        535        536        532        530        537        538
XI2848            bfr        539        540        525        541        542        528
XI2847            bfr        543        544        531        539        545        533
XI2846            bfr        546        547        536        543        548        537
XI2844            bfr        549        550        540        551        552        542
XI2843            bfr        553        554        544        549        555        545
XI2842            bfr        556        557        547        553        558        548
XI2840            bfr        559        560        550        561        562        552
XI2839            bfr        563        564        554        559        565        555
XI2838            bfr        566        567        557        563        568        558
XI2836            bfr        569        570        560        571        572        562
XI2835            bfr        573        574        564        569        575        565
XI2834            bfr        576        577        567        573        578        568
XI2832            bfr        579        580        570        581        582        572
XI2831            bfr        583        584        574        579        585        575
XI2830            bfr        586        587        577        583        588        578
XI2828            bfr        589        590        580        591        592        582
XI2827            bfr        593        594        584        589        595        585
XI2826            bfr        596        597        587        593        598        588
XI2824            bfr        599        600        590        601        602        592
XI2823            bfr        603        604        594        599        605        595
XI2822            bfr        606        607        597        603        608        598
XI2820            bfr        609        610        600        611        612        602
XI2819            bfr        613        614        604        609        615        605
XI2818            bfr        616        617        607        613        618        608
XI2816            bfr        619        620        610        621        622        612
XI2815            bfr        623        624        614        619        625        615
XI2814            bfr        626        627        617        623        628        618
XI2812            bfr        629        630        620        631        632        622