**** **** **** **** **** **** **** **** **** **** **** 
*JSIM CONTROL FILE FOR CADENCE BY KAMEDA@CQ.JP.NEC.COM
**** **** **** **** **** **** **** **** **** **** ****

*JSIM MODEL
**HSTP**
.MODEL JJMOD JJ(RTYPE=1, VG=2.8MV, CAP=0.064PF, R0=100OHM, RN=17OHM, ICRIT=0.1MA)
**OPEN**
*.MODEL JJMOD JJ(RTYPE=1, VG=2.8MV, CAP=0.218PF, R0=200OHM, RN=17OHM, ICRIT=0.1MA)


*** NETLIST FILE ***
**** **** **** **** **** **** **** ****+
*** LIB : HSTP_TTANAKA_LIB
*** CELL: SPL2_ENERGY
*** VIEW: SCHEMATIC
*** DEC 10 14:56:11 2021
**** **** **** **** **** **** **** ****

*** SINK
.SUBCKT SINK          1          2          3          4          5
***         A       DIN      DOUT       XIN      XOUT
KD1                LD         L1 -0.133
KXQ                LX         LQ 0.000
KXD                LX         LD 0.190
KDQ                LD         LQ 0.000
KD2                LD         L2 -0.133
KX1                LX         L1 -0.186
KX2                LX         L2 -0.186
LD                 2         3   7.450PH FCHECK
LX                 4         5   7.400PH FCHECK
LIN                1         6   1.230PH FCHECK
L1                 6         7   1.590PH FCHECK
L2                 8         6   1.590PH FCHECK
LQ                 6         0   7.920PH FCHECK
B2                 8         0  JJMOD AREA=0.50
B1                 7         0  JJMOD AREA=0.50
.ENDS

*** BFR
.SUBCKT BFR          1          2          3          9          4          5
***         A       DIN      DOUT         Q       XIN      XOUT
KXOUT              LX       LOUT 0.000
KD1                LD         L1 -0.133
KXQ                LX         LQ 0.000
KDOUT              LD       LOUT 0.000
KXD                LX         LD 0.190
KDQ                LD         LQ 0.000
KD2                LD         L2 -0.133
KX1                LX         L1 -0.186
KX2                LX         L2 -0.186
KOUT               LQ       LOUT -0.495
LD                 2         3   7.450PH FCHECK
LX                 4         5   7.400PH FCHECK
LIN                1         6   1.230PH FCHECK
L1                 6         7   1.590PH FCHECK
L2                 8         6   1.590PH FCHECK
LOUT              10         9  31.200PH FCHECK
LQ                 6         0   7.920PH FCHECK
R1                10         0   1.000POHM
B2                 8         0  JJMOD AREA=0.50
B1                 7         0  JJMOD AREA=0.50
.ENDS

*** BRANCH2
.SUBCKT BRANCH2          1         11         12
***         A         B         C
LIP                8        12   0.282PH FCHECK
LP2               11        13  11.000PH FCHECK
LP1                1        14  11.000PH FCHECK
R0                14         8   1.000POHM
R1                13         8   1.000POHM
.ENDS

*** BIAS_PAIR_10UM
.SUBCKT BIAS_PAIR_10UM          1         11         12         15
***         A         B         C         D
L1                12        15   3.730PH FCHECK
L0                 1        11   3.460PH FCHECK
C6                15         0   0.001PF
C0                11         0   0.001PF
.ENDS

*** BFRL
.SUBCKT BFRL          1          2          3          9          4          5
***         A       DIN      DOUT         Q       XIN      XOUT
KXOUT              LX       LOUT 0.000
KD1                LD         L1 -0.135
KXQ                LX         LQ 0.000
KDOUT              LD       LOUT 0.000
KXD                LX         LD 0.192
KDQ                LD         LQ 0.000
KD2                LD         L2 -0.135
KX1                LX         L1 -0.187
KX2                LX         L2 -0.187
KOUT               LQ       LOUT -0.495
LD                 2         3   7.430PH FCHECK
LX                 4         5   7.380PH FCHECK
LIN                1         6   1.240PH FCHECK
L1                 6         7   1.590PH FCHECK
L2                 8         6   1.590PH FCHECK
LOUT              10         9  31.100PH FCHECK
LQ                 6         0   7.920PH FCHECK
R1                10         0   1.000POHM
B2                 8         0  JJMOD AREA=1.00
B1                 7         0  JJMOD AREA=1.00
.ENDS

*** SPL2L
.SUBCKT SPL2L          1          2          3         16          4          5         17
***         A       DIN      DOUT         X       XIN      XOUT         Y
XI1           BRANCH2         16         17         18
XI14       BIAS_PAIR_10UM          4         19          2         20
XI15       BIAS_PAIR_10UM         21          5         22          3
XI0              BFRL          1         20         22         18         19         21
.ENDS

*** TOP CELL: SPL2_ENERGY
XI20             SINK         23         24          0         26          0
*** ("25" "25") MAPPED TO 0
XI14             SINK         27         28         24         29         26
XI19              BFR         30         31         32         23         33         34
XI18              BFR         35          7         32         30         36         37
XI17              BFR         38         39         40         35         41         34
XI15              BFR         42         28         31         27          0         33
*** ("43") MAPPED TO 0
XI8               BFR         44         45          7         42         29         36
XI7               BFR         46         45         39         44         47         41
XI5               BFR         48         49         50         51         47         52
XI3               BFR         53         54         50         48          6         55
XI2               BFR         56         54         57         53         58         52
XI13              BFR         59         60         57         56         61         55
VIN               14         0  PWL(0PS 0MV 20PS 5MV))
VX2               62         0  SIN(0 81000MV 8000MEGHZ 50PS 0)
VDC               63         0  PWL(0PS 0MV 20PS 113000MV)
VX1               64         0  SIN(0 81000MV 8000MEGHZ 81.25PS 0)
RIN               14        59  1000.00OHM
RX2               62        58  100000.00OHM
RDC               63        60  100000.00OHM
RX1               64        61  100000.00OHM
XI6             SPL2L         51         49         40         46          6         37         38

*** NETLIST FILE ***
.TRAN 0.1PS 1500PS
*** JSIM INPUT FILE ***

*** JSIM INPUT FILE ***
*.FILE 10101_8000.CSV
.PRINT DEVI RX1
.PRINT NODEV 61 0
.PRINT DEVI RX2
.PRINT NODEV 58 0 
.PRINT NODEV 6 37
*.PRINT DEVI XI5_LQ
*.PRINT XI7_LQ
*.PRINT XI17_LQ
time RX1_I NV11 RX2_I NV9 NV138_55
0.000000000000000e+00 0.000000000000000e+00 0.000000000000000e+00 0.000000000000000e+00 0.000000000000000e+00 0.000000000000000e+00 
1.000000000000000e-13 -3.105038341223323e-11 3.105038341223323e-06 0.000000000000000e+00 0.000000000000000e+00 5.972437755459640e-06 
2.000000000000000e-13 -1.460052235604503e-10 1.460052235604503e-05 5.376418106921594e-25 -5.376418106921594e-20 2.734934512915126e-05 
3.000000000000000e-13 -3.965431357131377e-10 3.965431357131377e-05 2.957029958806877e-24 -2.957029958806877e-19 7.052915711846256e-05 
4.000000000000000e-13 -6.015274793315121e-10 6.015274793315121e-05 3.844138946448940e-23 -3.844138946448940e-18 9.478070376040611e-05 
5.000000000000000e-13 -5.584849833449737e-10 5.584849833449737e-05 3.172086683083740e-22 -3.172086683083740e-17 6.024469782387140e-05 
6.000000000000000e-13 -4.261757714063913e-10 4.261757714063913e-05 1.729056063185985e-21 -1.729056063185985e-16 7.724067036909033e-06 
6.999999999999999e-13 -6.365749255643610e-10 6.365749255643610e-05 7.101173035622042e-21 -7.101173035622042e-16 3.318792398225150e-05 
7.999999999999999e-13 -1.252629987591336e-09 1.252629987591336e-04 2.323042735638682e-20 -2.323042735638683e-15 1.469322007219119e-04 
8.999999999999999e-13 -1.704637614836889e-09 1.704637614836889e-04 6.350194954447234e-20 -6.350194954447234e-15 2.219918109949756e-04 
1.000000000000000e-12 -1.485421867351805e-09 1.485421867351805e-04 1.491848496308605e-19 -1.491848496308605e-14 1.510777068511608e-04 
1.100000000000000e-12 -9.426263340704016e-10 9.426263340704017e-05 3.080558541231507e-19 -3.080558541231507e-14 1.722476228435182e-05 
1.200000000000000e-12 -9.306083992070698e-10 9.306083992070698e-05 5.696508535335279e-19 -5.696508535335279e-14 1.055884249505488e-05 
1.300000000000000e-12 -1.615240545806173e-09 1.615240545806173e-04 9.595056833026265e-19 -9.595056833026265e-14 1.641761993453600e-04 
1.400000000000000e-12 -2.097689834388266e-09 2.097689834388266e-04 1.498102345850575e-18 -1.498102345850575e-13 2.769742243522341e-04 
1.500000000000000e-12 -1.566064708104657e-09 1.566064708104657e-04 2.208718581013102e-18 -2.208718581013102e-13 1.719518269412962e-04 
1.600000000000000e-12 -4.943302407165186e-10 4.943302407165186e-05 3.131311928160847e-18 -3.131311928160847e-13 -4.220790121120742e-05 
1.700000000000000e-12 -1.273072721328470e-10 1.273072721328470e-05 4.328902609775905e-18 -4.328902609775905e-13 -9.091699910431440e-05 
1.800000000000000e-12 -7.921777459701472e-10 7.921777459701473e-05 5.867538847018184e-18 -5.867538847018184e-13 9.237553680463802e-05 
1.900000000000000e-12 -1.354741650436724e-09 1.354741650436724e-04 7.755220750030784e-18 -7.755220750030785e-13 2.511703356155635e-04 
2.000000000000000e-12 -7.189036629373908e-10 7.189036629373908e-05 9.857460445719923e-18 -9.857460445719924e-13 1.415866058225231e-04 
2.100000000000000e-12 5.942383570581807e-10 -5.942383570581807e-05 1.182572840445355e-17 -1.182572840445355e-12 -1.204015575989363e-04 
2.200000000000000e-12 1.034009904898904e-09 -1.034009904898904e-04 1.310266641505780e-17 -1.310266641505780e-12 -1.936372543634465e-04 
2.300000000000000e-12 1.042881315133274e-10 -1.042881315133274e-05 1.303336653622682e-17 -1.303336653622682e-12 2.640879766329762e-05 
2.400000000000000e-12 -8.970397280399507e-10 8.970397280399508e-05 1.108139127492441e-17 -1.108139127492441e-12 2.481785002923043e-04 
2.500000000000000e-12 -6.015080384023261e-10 6.015080384023261e-05 7.070187662788232e-18 -7.070187662788232e-13 1.689799224094520e-04 
2.600000000000000e-12 5.297538377522637e-10 -5.297538377522636e-05 1.359055270202128e-18 -1.359055270202128e-13 -1.056711467691539e-04 
2.700000000000000e-12 7.752415006503352e-10 -7.752415006503352e-05 -5.144225662854349e-18 5.144225662854350e-13 -1.917698624338134e-04 
2.800000000000000e-12 -4.999264404141601e-10 4.999264404141601e-05 -1.115279010738433e-17 1.115279010738433e-12 5.233662308467128e-05 
2.900000000000000e-12 -1.914690628644465e-09 1.914690628644466e-04 -1.531639151661206e-17 1.531639151661207e-12 3.223629377992616e-04 
3.000000000000000e-12 -1.890409767034937e-09 1.890409767034937e-04 -1.657297655883075e-17 1.657297655883075e-12 2.727599945171762e-04 
3.100000000000000e-12 -7.779938935728076e-10 7.779938935728076e-05 -1.443231912991679e-17 1.443231912991679e-12 -1.312773170144269e-05 
3.200000000000000e-12 -3.758824920206672e-10 3.758824920206672e-05 -9.099583344830313e-18 9.099583344830313e-13 -1.323576443328920e-04 
3.300000000000000e-12 -1.465989861424847e-09 1.465989861424847e-04 -1.418479744254311e-18 1.418479744254311e-13 9.057138672851297e-05 
3.400000000000000e-12 -2.724769750526238e-09 2.724769750526238e-04 7.351602289907963e-18 -7.351602289907963e-13 3.631728498210990e-04 
3.500000000000000e-12 -2.504831310822806e-09 2.504831310822806e-04 1.584869992054216e-17 -1.584869992054216e-12 3.206423840664393e-04 
3.600000000000000e-12 -1.060687546380347e-09 1.060687546380347e-04 2.293865559742592e-17 -2.293865559742592e-12 1.911126362994754e-05 
3.700000000000000e-12 -1.917287054609294e-10 1.917287054609293e-05 2.797013992314539e-17 -2.797013992314539e-12 -1.437967891725264e-04 
3.800000000000000e-12 -8.109787671198913e-10 8.109787671198914e-05 3.090581905036604e-17 -3.090581905036604e-12 3.205278394741424e-05 
3.900000000000000e-12 -1.757249350972102e-09 1.757249350972102e-04 3.229463817120808e-17 -3.229463817120808e-12 2.858591393510591e-04 
4.000000000000000e-12 -1.427870684215577e-09 1.427870684215577e-04 3.311274835943316e-17 -3.311274835943316e-12 2.577679516460490e-04 
4.100000000000000e-12 3.727453347526864e-11 -3.727453347526864e-06 3.449571793737487e-17 -3.449571793737487e-12 -2.607020620693144e-05 
4.200000000000000e-12 9.732529608439671e-10 -9.732529608439671e-05 3.741949152433957e-17 -3.741949152433957e-12 -2.000290949826957e-04 
4.300000000000000e-12 4.377910327087536e-10 -4.377910327087536e-05 4.235726273188813e-17 -4.235726273188813e-12 -5.667178224270048e-05 
4.400000000000000e-12 -5.943385380677815e-10 5.943385380677815e-05 4.898242061172680e-17 -4.898242061172680e-12 1.869784299575413e-04 
4.500000000000000e-12 -6.342827867758011e-10 6.342827867758011e-05 5.598803964361815e-17 -5.598803964361815e-12 1.988226991898095e-04 
4.600000000000000e-12 3.202199913459961e-10 -3.202199913459961e-05 6.114540957346030e-17 -6.114540957346030e-12 -2.379111810733959e-05 
4.700000000000000e-12 8.764158591950126e-10 -8.764158591950125e-05 6.168597615560262e-17 -6.168597615560261e-12 -1.714155974368729e-04 
4.800000000000000e-12 1.777422901718611e-10 -1.777422901718611e-05 5.501071866127642e-17 -5.501071866127642e-12 -4.971323804870667e-05 
4.900000000000000e-12 -1.003596733768252e-09 1.003596733768252e-04 3.958612780554618e-17 -3.958612780554618e-12 1.752919439500365e-04 
5.000000000000000e-12 -1.388808515501077e-09 1.388808515501077e-04 1.575543412035777e-17 -1.575543412035777e-12 2.224829378262075e-04 
5.100000000000000e-12 -8.724212023691580e-10 8.724212023691580e-05 -1.385068531570655e-17 1.385068531570655e-12 6.876270214213757e-05 
5.200000000000000e-12 -5.118058785032420e-10 5.118058785032420e-05 -4.452544742150952e-17 4.452544742150952e-12 -4.920759186642359e-05 
5.300000000000000e-12 -1.012479250663840e-09 1.012479250663840e-04 -7.036477091144385e-17 7.036477091144385e-12 3.077699473246951e-05 
5.400000000000000e-12 -1.847649962072455e-09 1.847649962072455e-04 -8.560186671268056e-17 8.560186671268056e-12 1.974158295541719e-04 
5.500000000000000e-12 -2.078732114457593e-09 2.078732114457593e-04 -8.604760188168574e-17 8.604760188168575e-12 2.430735054414716e-04 
5.600000000000000e-12 -1.592378176945148e-09 1.592378176945148e-04 -7.020067402855164e-17 7.020067402855165e-12 1.387799841860287e-04 
5.700000000000000e-12 -1.101416515781445e-09 1.101416515781445e-04 -3.971884361123193e-17 3.971884361123193e-12 3.996059727964006e-05 
5.800000000000000e-12 -1.107923760122572e-09 1.107923760122572e-04 9.004511068161914e-19 -9.004511068161913e-14 5.947518043441998e-05 
5.899999999999999e-12 -1.339056495793324e-09 1.339056495793324e-04 4.532129493763745e-17 -4.532129493763746e-12 1.387527448357823e-04 
5.999999999999999e-12 -1.279298580006636e-09 1.279298580006636e-04 8.680160796153838e-17 -8.680160796153838e-12 1.604082387723922e-04 
6.099999999999999e-12 -8.749888876851184e-10 8.749888876851184e-05 1.196572517059641e-16 -1.196572517059641e-11 1.051671632918450e-04 
6.199999999999999e-12 -4.684552662450093e-10 4.684552662450093e-05 1.404199977762326e-16 -1.404199977762326e-11 4.373234394447345e-05 
6.299999999999999e-12 -2.651725906338851e-10 2.651725906338851e-05 1.484004603370020e-16 -1.484004603370020e-11 2.250167633377029e-05 
6.399999999999999e-12 -1.794158176286197e-10 1.794158176286197e-05 1.455882409740541e-16 -1.455882409740541e-11 2.546637678158394e-05 
6.499999999999999e-12 -1.265141314096269e-10 1.265141314096269e-05 1.359298886459387e-16 -1.359298886459387e-11 3.268506489807814e-05 
6.599999999999999e-12 -1.480007603703201e-10 1.480007603703201e-05 1.242163854424818e-16 -1.242163854424818e-11 4.797361147401634e-05 
6.699999999999999e-12 -2.015473360097265e-10 2.015473360097265e-05 1.148110430493436e-16 -1.148110430493436e-11 5.876174894128396e-05 
6.799999999999999e-12 -1.192466732698646e-10 1.192466732698646e-05 1.105128677443324e-16 -1.105128677443324e-11 3.104586169947921e-05 
6.899999999999999e-12 7.108375889586567e-11 -7.108375889586567e-06 1.117481879776546e-16 -1.117481879776546e-11 -2.323274769349196e-05 
6.999999999999999e-12 2.644072637080807e-11 -2.644072637080806e-06 1.163075281686276e-16 -1.163075281686276e-11 -2.655216251229753e-05 
7.099999999999999e-12 -4.487544699460318e-10 4.487544699460318e-05 1.197175364069134e-16 -1.197175364069134e-11 6.092190005433140e-05 
7.199999999999999e-12 -9.749031512287272e-10 9.749031512287272e-05 1.162903580397614e-16 -1.162903580397614e-11 1.527530716282078e-04 
7.300000000000000e-12 -9.926338839778870e-10 9.926338839778870e-05 1.006853603991696e-16 -1.006853603991696e-11 1.285429402108620e-04 
7.400000000000000e-12 -5.875709922361760e-10 5.875709922361760e-05 6.967442162197718e-17 -6.967442162197718e-12 1.355449724370479e-05 
7.500000000000000e-12 -5.143371370472407e-10 5.143371370472407e-05 2.361601546074628e-17 -2.361601546074628e-12 -2.263589623626043e-05 
7.600000000000000e-12 -1.180476339016517e-09 1.180476339016517e-04 -3.282422825814330e-17 3.282422825814330e-12 1.074408367879871e-04 
7.700000000000000e-12 -1.946868931249984e-09 1.946868931249984e-04 -9.105522351327942e-17 9.105522351327943e-12 2.597385027400200e-04 
7.800000000000000e-12 -1.878221942316569e-09 1.878221942316569e-04 -1.400716058829040e-16 1.400716058829040e-11 2.297566419860004e-04 
7.900000000000000e-12 -1.061776944231708e-09 1.061776944231708e-04 -1.687963368401921e-16 1.687963368401921e-11 4.232263600640095e-05 
8.000000000000000e-12 -6.165567288357799e-10 6.165567288357799e-05 -1.686765932561147e-16 1.686765932561147e-11 -5.255404235507580e-05 
8.100000000000000e-12 -1.199229669162499e-09 1.199229669162499e-04 -1.358501284080389e-16 1.358501284080389e-11 8.749189438089085e-05 
8.200000000000000e-12 -2.005607897763180e-09 2.005607897763180e-04 -7.228782534446553e-17 7.228782534446553e-12 2.805609531674933e-04 
8.300000000000000e-12 -1.773351672327295e-09 1.773351672327295e-04 1.440363916516721e-17 -1.440363916516721e-12 2.471638874056784e-04 
8.400000000000000e-12 -5.432089145588208e-10 5.432089145588208e-05 1.124738409789785e-16 -1.124738409789785e-11 -1.031251429038787e-06 
8.500000000000000e-12 2.765306281044576e-10 -2.765306281044576e-05 2.084329771691364e-16 -2.084329771691364e-11 -1.520108716314503e-04 
8.600000000000000e-12 -2.246542071509539e-10 2.246542071509539e-05 2.897563505682115e-16 -2.897563505682115e-11 -8.485518797039804e-06 
8.700000000000000e-12 -1.166295442609970e-09 1.166295442609971e-04 3.472477915553664e-16 -3.472477915553664e-11 2.291988454247512e-04 
8.800000000000000e-12 -1.019759140180126e-09 1.019759140180126e-04 3.765359023121081e-16 -3.765359023121081e-11 2.202980587643694e-04 
8.900000000000000e-12 2.763870707967048e-10 -2.763870707967049e-05 3.784457436599901e-16 -3.784457436599901e-11 -4.814979647248282e-05 
9.000000000000000e-12 1.143417314830027e-09 -1.143417314830027e-04 3.582569065663958e-16 -3.582569065663958e-11 -2.266367356614306e-04 
9.100000000000000e-12 4.664014540456474e-10 -4.664014540456475e-05 3.241200752904942e-16 -3.241200752904942e-11 -7.093135279903895e-05 
9.200000000000000e-12 -8.592739482573540e-10 8.592739482573540e-05 2.850222810898980e-16 -2.850222810898980e-11 2.175872916292508e-04 
9.300000000000000e-12 -1.104006807625104e-09 1.104006807625104e-04 2.487610334688998e-16 -2.487610334688998e-11 2.554254544154552e-04 
9.400000000000000e-12 -5.604287037084757e-11 5.604287037084757e-06 2.202970200795871e-16 -2.202970200795871e-11 -1.895458694348639e-06 
9.500000000000000e-12 6.674114970036566e-10 -6.674114970036566e-05 2.008156335861740e-16 -2.008156335861740e-11 -1.931841827445259e-04 
9.599999999999999e-12 -1.823178238982262e-10 1.823178238982262e-05 1.876537491515193e-16 -1.876537491515193e-11 -3.988295354437796e-05 
9.699999999999999e-12 -1.760162849112196e-09 1.760162849112196e-04 1.751750225094715e-16 -1.751750225094715e-11 2.723867236950609e-04 
9.799999999999999e-12 -2.242533889857614e-09 2.242533889857613e-04 1.564344634198473e-16 -1.564344634198473e-11 3.421464971105049e-04 
9.899999999999999e-12 -1.275231228289462e-09 1.275231228289462e-04 1.253517817194360e-16 -1.253517817194360e-11 9.451895921284525e-05 
9.999999999999999e-12 -4.207607949865258e-10 4.207607949865258e-05 7.886257392813367e-17 -7.886257392813367e-12 -1.205500735759356e-04 
1.010000000000000e-11 -1.008709871611104e-09 1.008709871611104e-04 1.852206145775890e-17 -1.852206145775890e-12 -5.472232895845666e-06 
1.020000000000000e-11 -2.331225470495853e-09 2.331225470495853e-04 -4.896845052691775e-17 4.896845052691775e-12 2.845545583103632e-04 
1.030000000000000e-11 -2.622028664097276e-09 2.622028664097276e-04 -1.125265556832333e-16 1.125265556832333e-11 3.581464012398303e-04 
1.040000000000000e-11 -1.445473653935605e-09 1.445473653935605e-04 -1.587046366103898e-16 1.587046366103898e-11 1.174491345270560e-04 
1.050000000000000e-11 -2.448274728221129e-10 2.448274728221129e-05 -1.745031508937547e-16 1.745031508937547e-11 -1.193169401097282e-04 
1.060000000000000e-11 -3.662262835596855e-10 3.662262835596855e-05 -1.503682809777491e-16 1.503682809777491e-11 -5.518147215595046e-05 
1.070000000000000e-11 -1.292363904559500e-09 1.292363904559500e-04 -8.259258657214339e-17 8.259258657214339e-12 1.931245455098130e-04 
1.080000000000000e-11 -1.438220335229507e-09 1.438220335229507e-04 2.542741244252336e-17 -2.542741244252336e-12 2.700389189239992e-04 
1.090000000000000e-11 -3.302385824925842e-10 3.302385824925842e-05 1.634582504438055e-16 -1.634582504438055e-11 6.472141522331311e-05 
1.100000000000000e-11 8.037443275954789e-10 -8.037443275954790e-05 3.161057886081306e-16 -3.161057886081306e-11 -1.552773839394262e-04 
1.110000000000000e-11 7.302799481338001e-10 -7.302799481338001e-05 4.655761991597547e-16 -4.655761991597547e-11 -1.178499164817207e-04 
1.120000000000000e-11 -1.940605868621588e-10 1.940605868621588e-05 5.948103569112161e-16 -5.948103569112161e-11 9.840350752318667e-05 
1.130000000000000e-11 -6.256374349488917e-10 6.256374349488917e-05 6.903926449022892e-16 -6.903926449022892e-11 1.946214559043515e-04 
1.140000000000000e-11 -7.275654873267465e-11 7.275654873267465e-06 7.445810210590067e-16 -7.445810210590067e-11 5.916752622577945e-05 
1.150000000000000e-11 5.481722667502721e-10 -5.481722667502721e-05 7.561888539904230e-16 -7.561888539904230e-11 -1.053678302121499e-04 
1.160000000000000e-11 2.499220059157507e-10 -2.499220059157507e-05 7.301920401601662e-16 -7.301920401601662e-11 -7.586349202757418e-05 
1.170000000000000e-11 -7.314324053127926e-10 7.314324053127926e-05 6.762971046025900e-16 -6.762971046025900e-11 1.019736138838792e-04 
1.180000000000000e-11 -1.366523624041928e-09 1.366523624041928e-04 6.067648956912425e-16 -6.067648956912425e-11 2.038435912440017e-04 
1.190000000000000e-11 -1.223746280519133e-09 1.223746280519133e-04 5.339680912962964e-16 -5.339680912962964e-11 1.340827846650003e-04 
1.200000000000000e-11 -8.988152049834591e-10 8.988152049834591e-05 4.680858595184520e-16 -4.680858595184520e-11 2.524379566558254e-05 
1.210000000000000e-11 -1.071796283427994e-09 1.071796283427994e-04 4.153704670821894e-16 -4.153704670821894e-11 3.281308492793488e-05 
1.220000000000000e-11 -1.624354377580230e-09 1.624354377580230e-04 3.772682650832294e-16 -3.772682650832294e-11 1.369860880443533e-04 
1.230000000000000e-11 -1.937398736260703e-09 1.937398736260703e-04 3.506155454484663e-16 -3.506155454484663e-11 2.026353432019260e-04 
1.240000000000000e-11 -1.756544038386179e-09 1.756544038386179e-04 3.288935087516193e-16 -3.288935087516194e-11 1.696348218299816e-04 
1.250000000000000e-11 -1.397518716783159e-09 1.397518716783159e-04 3.043422890174138e-16 -3.043422890174138e-11 1.036241640171461e-04 
1.260000000000000e-11 -1.194986077466247e-09 1.194986077466247e-04 2.704897455264682e-16 -2.704897455264682e-11 7.892295632453198e-05 
1.270000000000000e-11 -1.116100293815820e-09 1.116100293815820e-04 2.244966477912657e-16 -2.244966477912657e-11 9.091865118021069e-05 
1.280000000000000e-11 -9.880550863619162e-10 9.880550863619161e-05 1.687350886851180e-16 -1.687350886851180e-11 1.001535187494308e-04 
1.290000000000000e-11 -8.040860564245428e-10 8.040860564245429e-05 1.111284461119025e-16 -1.111284461119025e-11 9.825151447087244e-05 
1.300000000000000e-11 -6.207193341401665e-10 6.207193341401665e-05 6.409839646585077e-17 -6.409839646585078e-12 9.071014535936444e-05 
1.310000000000000e-11 -3.659716558900064e-10 3.659716558900064e-05 4.226377327271050e-17 -4.226377327271050e-12 6.028911854644029e-05 
1.320000000000000e-11 -4.283300544495133e-12 4.283300544495134e-07 5.937946698092633e-17 -5.937946698092633e-12 2.071583215345424e-06 
1.330000000000000e-11 2.294797395338752e-10 -2.294797395338752e-05 1.251546865327707e-16 -1.251546865327707e-11 -3.135846947920250e-05 
1.340000000000000e-11 7.194755811222648e-11 -7.194755811222649e-06 2.427098533838871e-16 -2.427098533838871e-11 1.379273492177959e-05 
1.350000000000000e-11 -2.958636851646135e-10 2.958636851646135e-05 4.072172365514050e-16 -4.072172365514050e-11 9.277606502677289e-05 
1.360000000000000e-11 -3.564669919008549e-10 3.564669919008549e-05 6.061266073335889e-16 -6.061266073335889e-11 9.218460198535044e-05 
1.370000000000000e-11 1.286205094495560e-11 -1.286205094495560e-06 8.208889963753384e-16 -8.208889963753383e-11 -9.172329508161655e-06 
1.380000000000000e-11 2.242659504726924e-10 -2.242659504726924e-05 1.029921861373441e-15 -1.029921861373441e-10 -7.702996006938742e-05 
1.390000000000000e-11 -2.804365446262187e-10 2.804365446262187e-05 1.212139527080456e-15 -1.212139527080456e-10 1.093443623734087e-05 
1.400000000000000e-11 -1.150537164423059e-09 1.150537164423059e-04 1.350433525694101e-15 -1.350433525694101e-10 1.745167162690314e-04 
1.410000000000000e-11 -1.451585426406425e-09 1.451585426406425e-04 1.434375154495364e-15 -1.434375154495364e-10 2.088412544031299e-04 
1.420000000000000e-11 -9.323845788841461e-10 9.323845788841462e-05 1.461721767554410e-15 -1.461721767554410e-10 6.456437608458115e-05 
1.430000000000000e-11 -4.846651111463252e-10 4.846651111463252e-05 1.438427648998562e-15 -1.438427648998562e-10 -5.635009209248190e-05 
1.440000000000000e-11 -9.861400306650210e-10 9.861400306650209e-05 1.377254023982876e-15 -1.377254023982876e-10 3.952065655117169e-05 
1.450000000000000e-11 -2.011818203642147e-09 2.011818203642147e-04 1.295189134998494e-15 -1.295189134998494e-10 2.549606993712182e-04 
1.460000000000000e-11 -2.283813455466613e-09 2.283813455466613e-04 1.210219156555352e-15 -1.210219156555352e-10 3.071959847871670e-04 
1.470000000000000e-11 -1.403001142065444e-09 1.403001142065444e-04 1.137965740286771e-15 -1.137965740286771e-10 1.117378257052791e-04 
1.480000000000000e-11 -4.955742538811761e-10 4.955742538811761e-05 1.088881468810427e-15 -1.088881468810427e-10 -7.932987047032062e-05 
1.490000000000000e-11 -7.477837577474708e-10 7.477837577474709e-05 1.066497745584325e-15 -1.066497745584325e-10 -5.302201947155665e-06 
1.500000000000001e-11 -1.743240935454355e-09 1.743240935454355e-04 1.067182486194423e-15 -1.067182486194423e-10 2.372263240159583e-04 
1.510000000000001e-11 -1.947676228606924e-09 1.947676228606923e-04 1.081463629049443e-15 -1.081463629049443e-10 3.063313781166187e-04 
1.520000000000001e-11 -8.001024392601235e-10 8.001024392601235e-05 1.096752063191899e-15 -1.096752063191899e-10 7.874927131972792e-05 
1.530000000000001e-11 4.366017920987582e-10 -4.366017920987582e-05 1.100858579944235e-15 -1.100858579944235e-10 -1.652473537583508e-04 
1.540000000000001e-11 3.255322977527082e-10 -3.255322977527082e-05 1.085566498439734e-15 -1.085566498439734e-10 -1.101096795806182e-04 
1.550000000000001e-11 -7.797697492842716e-10 7.797697492842716e-05 1.049414534043744e-15 -1.049414534043744e-10 1.612763340770762e-04 
1.560000000000002e-11 -1.177574512582848e-09 1.177574512582848e-04 9.990210660481538e-16 -9.990210660481539e-11 2.689897703395700e-04 
1.570000000000002e-11 -1.373994263537228e-10 1.373994263537228e-05 9.485730252582113e-16 -9.485730252582113e-11 5.094516854988291e-05 
1.580000000000002e-11 1.058436094585864e-09 -1.058436094585864e-04 9.175114019122414e-16 -9.175114019122414e-11 -2.083611544179203e-04 
1.590000000000002e-11 8.216418033476018e-10 -8.216418033476018e-05 9.268267645719427e-16 -9.268267645719427e-11 -1.578601298010397e-04 
1.600000000000002e-11 -5.810588476231730e-10 5.810588476231730e-05 9.947059614778093e-16 -9.947059614778092e-11 1.418740834330475e-04 
1.610000000000002e-11 -1.372254563314769e-09 1.372254563314769e-04 1.132449208422852e-15 -1.132449208422852e-10 2.967145420917637e-04 
1.620000000000003e-11 -6.663159839566142e-10 6.663159839566141e-05 1.341520405131491e-15 -1.341520405131491e-10 1.120173434672997e-04 
1.630000000000003e-11 3.413992145574862e-10 -3.413992145574862e-05 1.612446320103870e-15 -1.612446320103870e-10 -1.446127461964721e-04 
1.640000000000003e-11 1.872348839393141e-11 -1.872348839393141e-06 1.925825327084474e-15 -1.925825327084474e-10 -1.085767353763629e-04 
1.650000000000003e-11 -1.475202463466674e-09 1.475202463466674e-04 2.255352926286490e-15 -2.255352926286490e-10 1.875768240773810e-04 
1.660000000000003e-11 -2.407000843682865e-09 2.407000843682865e-04 2.572256936636984e-15 -2.572256936636984e-10 3.620905712096831e-04 
1.670000000000003e-11 -1.804865881788720e-09 1.804865881788720e-04 2.850309246497606e-15 -2.850309246497606e-10 2.016439802666824e-04 
1.680000000000004e-11 -7.213095775168878e-10 7.213095775168878e-05 3.070400431485253e-15 -3.070400431485253e-10 -5.834493205331373e-05 
1.690000000000004e-11 -7.493424395894527e-10 7.493424395894527e-05 3.223798982139827e-15 -3.223798982139827e-10 -6.220461530817414e-05 
1.700000000000004e-11 -1.866915201835221e-09 1.866915201835221e-04 3.313445360450099e-15 -3.313445360450099e-10 1.874051455055075e-04 
1.710000000000004e-11 -2.523737806284183e-09 2.523737806284183e-04 3.353067411330867e-15 -3.353067411330867e-10 3.469908307048431e-04 
1.720000000000004e-11 -1.767325452162613e-09 1.767325452162613e-04 3.364267703167509e-15 -3.364267703167509e-10 2.029738760808734e-04 
1.730000000000004e-11 -4.805179074414314e-10 4.805179074414314e-05 3.372164310810348e-15 -3.372164310810348e-10 -5.206085245587638e-05 