.model             jjmod              jj(Rtype=1,  Vg=2.8mV,    Cap=0.064pF,       R0=100ohm,  Rn=17ohm,      Icrit=0.1mA)


.subckt            branch3            1            2            3                  4
*inst name         cell_name          a            b            c                  d
Lip                7                  4            0.312pH
Lp1                1                  6            11.8pH
Lp2                2                  7            10.2pH
Lp3                3                  5            11.8pH
R0                 6                  7            1e-12ohm
R1                 5                  7            1e-12ohm
.ends


.subckt            const0             1            2            11                 12          13
*inst name         cell_name          din          dout         q                  xin         xout
B1                 8                  0            jjmod        area=0.5
B2                 4                  0            jjmod        area=0.5
Kd1                Ld                 L1           -0.128
Kd2                Ld                 L2           -0.135
Kdout              Ld                 Lout         -0.000253
Kdq                Ld                 Lq           -0.00468
Kout               Lq                 Lout         -0.495
Kx1                Lx                 L1           -0.185
Kx2                Lx                 L2           -0.189
Kxd                Lx                 Ld           0.193
Kxout              Lx                 Lout         -7.94e-05
Kxq                Lx                 Lq           -0.00421
L1                 7                  8            1.56pH
L2                 4                  7            1.66pH
Ld                 1                  2            7.49pH
Lout               5                  11           31.2pH
Lq                 7                  0            7.82pH
Lx                 12                 13           7.47pH
R1                 5                  0            1e-12ohm
.ends


.subckt            bfr                1            2            3                  12          13             14
*inst name         cell_name          a            din          dout               q           xin            xout
B1                 9                  0            jjmod        area=0.5
B2                 5                  0            jjmod        area=0.5
Kd1                Ld                 L1           -0.133
Kd2                Ld                 L2           -0.133
Kdout              Ld                 Lout         0.0
Kdq                Ld                 Lq           0.0
Kout               Lq                 Lout         -0.495
Kx1                Lx                 L1           -0.186
Kx2                Lx                 L2           -0.186
Kxd                Lx                 Ld           0.19
Kxout              Lx                 Lout         0.0
Kxq                Lx                 Lq           0.0
L1                 8                  9            1.59pH
L2                 5                  8            1.59pH
Ld                 2                  3            7.45pH
Lin                1                  8            1.23pH
Lout               6                  12           31.2pH
Lq                 8                  0            7.92pH
Lx                 13                 14           7.4pH
R1                 6                  0            1e-12ohm
.ends


.subckt            and_bb             1            2            3                  4           12             13                     14
*inst name         cell_name          a            b            din                dout        q              xin                    xout
XI0                bfr                1            3            8                  9           13             5
XI2                bfr                2            11           4                  10          7              14
XI3                branch3            9            6            10                 12
XI1                const0             8            11           6                  5           7
.ends


.subckt            bias_pair_10um     1            2            3                  4
*inst name         cell_name          a            b            c                  d
*C0                 2                  0            0.00145pF
*C6                 4                  0            0.00144pF
L0                 1                  2            3.46pH
L1                 3                  4            3.73pH
.ends


.subckt            branch2            1            2            3
*inst name         cell_name          a            b            c
Lip                6                  3            0.282pH
Lp1                1                  5            11.0pH
Lp2                2                  4            11.0pH
R0                 5                  6            1e-12ohm
R1                 4                  6            1e-12ohm
.ends


.subckt            spl2               1            2            3                  9           10             11                     12
*inst name         cell_name          a            din          dout               x           xin            xout                   y
XI0                bfr                1            4            6                  7           8              5
XI14               bias_pair_10um     10           8            2                  4
XI15               bias_pair_10um     5            11           6                  3
XI1                branch2            9            12           7
.ends


.subckt            inv                1            2            3                  12          13             14
*inst name         cell_name          a            din          dout               q           xin            xout
B1                 9                  0            jjmod        area=0.6
B2                 5                  0            jjmod        area=0.6
Kd1                Ld                 L1           -0.133
Kd2                Ld                 L2           -0.133
Kdout              Ld                 Lout         0.0
Kdq                Ld                 Lq           0.0
Kout               Lq                 Lout         0.432
Kx1                Lx                 L1           -0.186
Kx2                Lx                 L2           -0.186
Kxd                Lx                 Ld           0.19
Kxout              Lx                 Lout         0.0
Kxq                Lx                 Lq           0.0
L1                 8                  9            1.59pH
L2                 5                  8            1.59pH
Ld                 2                  3            7.44pH
Lin                1                  8            1.24pH
Lout               6                  12           31.0pH
Lq                 8                  0            6.49pH
Lx                 13                 14           7.39pH
R1                 6                  0            1e-12ohm
.ends


.subckt            maj_bbi            1            2            3                  4           5              13                     14    15
*inst name         cell_name          a            b            c                  din         dout           q                      xin   xout
XI0                bfr                1            4            9                  11          14             6
XI1                bfr                2            9            12                 7           6              8
XI3                branch3            11           7            10                 13
XI2                inv                3            12           5                  10          8              15
.ends


.subckt            bias_pair_20um     1            2            3                  4
*inst name         cell_name          a            b            c                  d
XI0                bias_pair_10um     1            6            3                  5
XI1                bias_pair_10um     6            2            5                  4
.ends


.subckt            bfrL               1            2            3                  12          13             14
*inst name         cell_name          a            din          dout               q           xin            xout
B1                 9                  0            jjmod        area=1.0
B2                 5                  0            jjmod        area=1.0
Kd1                Ld                 L1           -0.135
Kd2                Ld                 L2           -0.135
Kdout              Ld                 Lout         0.0
Kdq                Ld                 Lq           0.0
Kout               Lq                 Lout         -0.495
Kx1                Lx                 L1           -0.187
Kx2                Lx                 L2           -0.187
Kxd                Lx                 Ld           0.192
Kxout              Lx                 Lout         0.0
Kxq                Lx                 Lq           0.0
L1                 8                  9            1.59pH
L2                 5                  8            1.59pH
Ld                 2                  3            7.43pH
Lin                1                  8            1.24pH
Lout               6                  12           31.1pH
Lq                 8                  0            7.92pH
Lx                 13                 14           7.38pH
R1                 6                  0            1e-12ohm
.ends


.subckt            spl3L              1            2            3                  9           10             11                     12    13
*inst name         cell_name          a            din          dout               x           xin            xout                   y     z
XI0                bfrL               1            4            6                  7           8              5
XI14               bias_pair_20um     10           8            2                  4
XI15               bias_pair_20um     5            11           6                  3
XI1                branch3            9            12           13                 7
.ends


.subckt            maj_bib            1            2            3                  4           5              13                     14    15
*inst name         cell_name          a            b            c                  din         dout           q                      xin   xout
XI0                bfr                1            4            9                  11          14             6
XI2                bfr                3            7            5                  10          8              15
XI3                branch3            11           12           10                 13
XI1                inv                2            9            7                  12          6              8
.ends


.subckt            maj_ibb            1            2            3                  4           5              13                     14    15
*inst name         cell_name          a            b            c                  din         dout           q                      xin   xout
XI1                bfr                2            8            10                 12          6              7
XI2                bfr                3            10           5                  9           7              15
XI3                branch3            11           12           9                  13
XI0                inv                1            4            8                  11          14             6
.ends


.subckt            maj_bbb            1            2            3                  4           5              13                     14    15
*inst name         cell_name          a            b            c                  din         dout           q                      xin   xout
XI0                bfr                1            4            8                  11          14             6
XI1                bfr                2            8            10                 12          6              7
XI2                bfr                3            10           5                  9           7              15
XI3                branch3            11           12           9                  13
.ends


.subckt            sink               1            2            3                  10          11
*inst name         cell_name          a            din          dout               xin         xout
B1                 8                  0            jjmod        area=0.5
B2                 5                  0            jjmod        area=0.5
Kd1                Ld                 L1           -0.133
Kd2                Ld                 L2           -0.133
Kdq                Ld                 Lq           0.0
Kx1                Lx                 L1           -0.186
Kx2                Lx                 L2           -0.186
Kxd                Lx                 Ld           0.19
Kxq                Lx                 Lq           0.0
L1                 7                  8            1.59pH
L2                 5                  7            1.59pH
Ld                 2                  3            7.45pH
Lin                1                  7            1.23pH
Lq                 7                  0            7.92pH
Lx                 10                 11           7.4pH
.ends


.subckt            and_bi             1            2            3                  4           12             13                     14
*inst name         cell_name          a            b            din                dout        q              xin                    xout
XI0                bfr                1            3            8                  9           13             5
XI3                branch3            9            7            10                 12
XI1                const0             8            11           7                  5           6
XI2                inv                2            11           4                  10          6              14
.ends


.subckt            const1             1            2            7                  8           9
*inst name         cell_name          din          dout         q                  xin         xout
L1                 8                  4            0.01pH
L2                 6                  9            0.01pH
L3                 1                  3            0.01pH
L4                 5                  2            0.01pH
XI0                const0             5            3            7                  6           4
.ends


.subckt            or_bb              1            2            3                  4           12             13                     14
*inst name         cell_name          a            b            din                dout        q              xin                    xout
XI0                bfr                1            3            8                  9           13             5
XI2                bfr                2            11           4                  10          6              14
XI3                branch3            9            7            10                 12
XI1                const1             8            11           7                  5           6
.ends


*this is top cell  16bit_RCA_ene_opt
R37                3186               2134         1000.0ohm
R38                3210               3428         1000.0ohm
R39                2277               3417         1000.0ohm
R40                3255               375          1000.0ohm
R41                526                1596         1000.0ohm
R42                1567               707          1000.0ohm
R43                596                1467         1000.0ohm
R44                288                252          1000.0ohm
R45                276                254          1000.0ohm
R46                2933               3074         1000.0ohm
R47                3028               237          1000.0ohm
R48                272                239          1000.0ohm
R49                268                238          1000.0ohm
R50                2760               251          1000.0ohm
R51                264                3199         1000.0ohm
R52                3267               3295         1000.0ohm
R53                3145               2161         1000.0ohm
R54                3244               3444         1000.0ohm
R55                2228               3440         1000.0ohm
R56                747                629          1000.0ohm
R57                765                678          1000.0ohm
R58                1491               1483         1000.0ohm
R59                1454               1518         1000.0ohm
R60                286                256          1000.0ohm
R61                274                2618         1000.0ohm
R62                281                2896         1000.0ohm
R63                3204               236          1000.0ohm
R64                270                2794         1000.0ohm
R65                266                247          1000.0ohm
R66                260                249          1000.0ohm
R67                262                230          1000.0ohm
R68                400                1824         1000.0ohm
Rac1               3236               3497         100000.0ohm
Rac2               3054               3500         100000.0ohm
Rdc1               3273               947          100000.0ohm
V10                3255               0            PWL          (0ps 0mV 20ps {{input[0]}})
V11                747                0            PWL          (0ps 0mV 20ps {{input[1]}})
V12                526                0            PWL          (0ps 0mV 20ps {{input[2]}})
V13                765                0            PWL          (0ps 0mV 20ps {{input[3]}})
V14                1567               0            PWL          (0ps 0mV 20ps {{input[4]}})
V15                1491               0            PWL          (0ps 0mV 20ps {{input[5]}})
V16                596                0            PWL          (0ps 0mV 20ps {{input[6]}})
V17                1454               0            PWL          (0ps 0mV 20ps {{input[7]}})
V19                400                0            PWL          (0ps 0mV 20ps {{input[8]}})
V21                288                0            PWL          (0ps 0mV 20ps {{input[9]}})
V22                286                0            PWL          (0ps 0mV 20ps {{input[10]}})
V23                276                0            PWL          (0ps 0mV 20ps {{input[11]}})
V24                274                0            PWL          (0ps 0mV 20ps {{input[12]}})
V25                2933               0            PWL          (0ps 0mV 20ps {{input[13]}})
V26                281                0            PWL          (0ps 0mV 20ps {{input[14]}})
V27                3028               0            PWL          (0ps 0mV 20ps {{input[15]}})
V28                3204               0            PWL          (0ps 0mV 20ps {{input[16]}})
V29                272                0            PWL          (0ps 0mV 20ps {{input[17]}})
V3                 3267               0            PWL          (0ps 0mV 20ps {{input[18]}})
V30                270                0            PWL          (0ps 0mV 20ps {{input[19]}})
V31                268                0            PWL          (0ps 0mV 20ps {{input[20]}})
V32                266                0            PWL          (0ps 0mV 20ps {{input[21]}})
V33                2760               0            PWL          (0ps 0mV 20ps {{input[22]}})
V34                260                0            PWL          (0ps 0mV 20ps {{input[23]}})
V35                264                0            PWL          (0ps 0mV 20ps {{input[24]}})
V36                262                0            PWL          (0ps 0mV 20ps {{input[25]}})
V4                 3186               0            PWL          (0ps 0mV 20ps {{input[26]}})
V5                 3145               0            PWL          (0ps 0mV 20ps {{input[27]}})
V6                 3210               0            PWL          (0ps 0mV 20ps {{input[28]}})
V7                 3244               0            PWL          (0ps 0mV 20ps {{input[29]}})
V8                 2277               0            PWL          (0ps 0mV 20ps {{input[30]}})
V9                 2228               0            PWL          (0ps 0mV 20ps {{input[31]}})
VDC                3273               0            PWL          (0ps               0mV         20ps           113000mV)
VAC1               3236               0            SIN          (0                 81000mV     {{freq}}MEGHz  {{40+period|int/4}}ps  0)
VAC2               3054               0            SIN          (0                 81000mV     {{freq}}MEGHz  40ps                   0)
XI0                and_bb             1930         2640         2093               481         2284           2031                   869
XI1201             and_bi             2143         2225         687                2292        2229           1135                   2095
XI156              and_bi             1994         3445         2292               2111        2179           2095                   3275
XI100              bfr                3344         2454         2425               3439        427            2386
XI1000             bfr                256          916          911                231         917            912
XI1001             bfr                632          909          907                150         891            908
XI1002             bfr                529          907          906                3016        908            903
XI1003             bfr                716          906          904                3069        903            901
XI1004             bfr                517          904          902                2899        901            898
XI1005             bfr                1            902          900                107         898            896
XI1006             bfr                708          900          897                2676        896            894
XI1007             bfr                682          897          876                2844        894            895
XI1008             bfr                775          3147         909                2981        395            891
XI1009             bfr                150          890          888                2943        887            889
XI101              bfr                87           2455         2454               643         355            427
XI1010             bfr                2899         886          885                3167        883            878
XI1011             bfr                3069         881          886                3085        882            883
XI1012             bfr                3016         888          881                3035        889            882
XI1013             bfr                107          885          875                2777        878            879
XI1014             bfr                2844         877          876                2719        874            3443
XI1015             bfr                2676         875          877                2502        879            874
XI1016             bfr                2981         442          890                2680        872            887
XI1017             bfr                2680         871          870                2843        1687           860
XI1018             bfr                3035         861          867                2948        866            868
XI1019             bfr                3085         867          865                3106        868            862
XI102              bfr                3421         3452         2455               3426        354            355
XI1020             bfr                3167         865          856                53          862            864
XI1021             bfr                2943         870          861                3059        860            866
XI1022             bfr                2502         854          859                2764        855            857
XI1023             bfr                2719         859          833                2613        857            818
XI1024             bfr                2777         856          854                47          864            855
XI1025             bfr                2843         853          851                2520        849            852
XI1026             bfr                2948         840          847                3110        841            848
XI1027             bfr                3106         847          845                2683        848            846
XI1028             bfr                53           845          842                17          846            843
XI1029             bfr                3059         851          840                2552        852            841
XI103              bfr                3356         441          2434               115         2426           421
XI1030             bfr                2764         839          837                3046        835            838
XI1031             bfr                2613         837          833                8           838            834
XI1032             bfr                47           842          839                2867        843            835
XI1033             bfr                2520         1846         830                3003        1847           822
XI1034             bfr                3110         823          829                3480        824            826
XI1035             bfr                2683         829          825                3209        826            828
XI1036             bfr                17           825          816                2643        828            813
XI1037             bfr                2552         830          823                2755        822            824
XI1038             bfr                3046         821          819                2690        815            817
XI1039             bfr                8            819          796                2830        817            818
XI104              bfr                3429         2428         441                301         430            2426
XI1040             bfr                2867         816          821                2756        813            815
XI1041             bfr                3003         812          811                2737        810            800
XI1042             bfr                3480         801          808                3450        807            809
XI1043             bfr                3209         808          805                2686        809            802
XI1044             bfr                2643         805          803                2984        802            804
XI1045             bfr                2755         811          801                3200        800            807
XI1046             bfr                2690         799          797                3432        794            798
XI1047             bfr                2830         797          796                2572        798            834
XI1048             bfr                2756         803          799                2931        804            794
XI1049             bfr                2737         793          2721               2770        1843           792
XI105              bfr                3337         353          2428               3375        2443           430
XI1050             bfr                3450         2841         3014               3404        2784           2723
XI1051             bfr                2686         3014         785                2926        2723           2722
XI1052             bfr                2984         785          3060               2670        2722           770
XI1053             bfr                3200         2721         2841               3182        792            2784
XI1054             bfr                3432         2780         776                2923        2634           2588
XI1055             bfr                2572         776          2887               3133        2588           2968
XI1056             bfr                2931         3060         2780               2940        770            2634
XI1057             bfr                2770         1848         2936               2667        1849           751
XI1058             bfr                3404         2576         2945               2635        2878           2837
XI1059             bfr                2926         2945         3038               2506        2837           2658
XI106              bfr                235          458          353                3344        2442           2443
XI1060             bfr                2670         3038         2865               3324        2658           757
XI1061             bfr                3182         2936         2576               2656        751            2878
XI1062             bfr                2923         750          3135               2507        2565           2982
XI1063             bfr                3133         3135         2887               2942        2982           2869
XI1064             bfr                2940         2865         750                2557        757            2565
XI1065             bfr                2667         1836         731                2939        1837           740
XI1066             bfr                2635         3030         2759               2495        2740           3045
XI1067             bfr                2506         2759         2515               3052        3045           2688
XI1068             bfr                3324         2515         733                2853        2688           734