.model             jjmod              jj(Rtype=1,  Vg=2.8mV,    Cap=0.064pF,  R0=100ohm,  Rn=17ohm,      Icrit=0.1mA)


.subckt            branch3            1            2            3             4
*inst name         cell_name          a            b            c             d
Lip                7                  4            0.312pH
Lp1                1                  6            11.8pH
Lp2                2                  7            10.2pH
Lp3                3                  5            11.8pH
R0                 6                  7            1e-12ohm
R1                 5                  7            1e-12ohm
.ends


.subckt            const0             1            2            11            12          13
*inst name         cell_name          din          dout         q             xin         xout
B1                 8                  0            jjmod        area=0.5
B2                 4                  0            jjmod        area=0.5
Kd1                Ld                 L1           -0.128
Kd2                Ld                 L2           -0.135
Kdout              Ld                 Lout         -0.000253
Kdq                Ld                 Lq           -0.00468
Kout               Lq                 Lout         -0.495
Kx1                Lx                 L1           -0.185
Kx2                Lx                 L2           -0.189
Kxd                Lx                 Ld           0.193
Kxout              Lx                 Lout         -7.94e-05
Kxq                Lx                 Lq           -0.00421
L1                 7                  8            1.56pH
L2                 4                  7            1.66pH
Ld                 1                  2            7.49pH
Lout               5                  11           31.2pH
Lq                 7                  0            7.82pH
Lx                 12                 13           7.47pH
R1                 5                  0            1e-12ohm
.ends


.subckt            bfr                1            2            3             12          13             14
*inst name         cell_name          a            din          dout          q           xin            xout
B1                 9                  0            jjmod        area=0.5
B2                 5                  0            jjmod        area=0.5
Kd1                Ld                 L1           -0.133
Kd2                Ld                 L2           -0.133
Kdout              Ld                 Lout         0.0
Kdq                Ld                 Lq           0.0
Kout               Lq                 Lout         -0.495
Kx1                Lx                 L1           -0.186
Kx2                Lx                 L2           -0.186
Kxd                Lx                 Ld           0.19
Kxout              Lx                 Lout         0.0
Kxq                Lx                 Lq           0.0
L1                 8                  9            1.59pH
L2                 5                  8            1.59pH
Ld                 2                  3            7.45pH
Lin                1                  8            1.23pH
Lout               6                  12           31.2pH
Lq                 8                  0            7.92pH
Lx                 13                 14           7.4pH
R1                 6                  0            1e-12ohm
.ends


.subckt            and_bb             1            2            3             4           12             13                     14
*inst name         cell_name          a            b            din           dout        q              xin                    xout
XI0                bfr                1            3            8             9           13             5
XI2                bfr                2            11           4             10          7              14
XI3                branch3            9            6            10            12
XI1                const0             8            11           6             5           7
.ends


.subckt            bias_pair_10um     1            2            3             4
*inst name         cell_name          a            b            c             d
*C0                 2                  0            0.00145pF
*C6                 4                  0            0.00144pF
L0                 1                  2            3.46pH
L1                 3                  4            3.73pH
.ends


.subckt            branch2            1            2            3
*inst name         cell_name          a            b            c
Lip                6                  3            0.282pH
Lp1                1                  5            11.0pH
Lp2                2                  4            11.0pH
R0                 5                  6            1e-12ohm
R1                 4                  6            1e-12ohm
.ends


.subckt            spl2               1            2            3             9           10             11                     12
*inst name         cell_name          a            din          dout          x           xin            xout                   y
XI0                bfr                1            4            6             7           8              5
XI14               bias_pair_10um     10           8            2             4
XI15               bias_pair_10um     5            11           6             3
XI1                branch2            9            12           7
.ends


.subckt            inv                1            2            3             12          13             14
*inst name         cell_name          a            din          dout          q           xin            xout
B1                 9                  0            jjmod        area=0.6
B2                 5                  0            jjmod        area=0.6
Kd1                Ld                 L1           -0.133
Kd2                Ld                 L2           -0.133
Kdout              Ld                 Lout         0.0
Kdq                Ld                 Lq           0.0
Kout               Lq                 Lout         0.432
Kx1                Lx                 L1           -0.186
Kx2                Lx                 L2           -0.186
Kxd                Lx                 Ld           0.19
Kxout              Lx                 Lout         0.0
Kxq                Lx                 Lq           0.0
L1                 8                  9            1.59pH
L2                 5                  8            1.59pH
Ld                 2                  3            7.44pH
Lin                1                  8            1.24pH
Lout               6                  12           31.0pH
Lq                 8                  0            6.49pH
Lx                 13                 14           7.39pH
R1                 6                  0            1e-12ohm
.ends


.subckt            maj_bbi            1            2            3             4           5              13                     14    15
*inst name         cell_name          a            b            c             din         dout           q                      xin   xout
XI0                bfr                1            4            9             11          14             6
XI1                bfr                2            9            12            7           6              8
XI3                branch3            11           7            10            13
XI2                inv                3            12           5             10          8              15
.ends


.subckt            bias_pair_20um     1            2            3             4
*inst name         cell_name          a            b            c             d
XI0                bias_pair_10um     1            6            3             5
XI1                bias_pair_10um     6            2            5             4
.ends


.subckt            bfrL               1            2            3             12          13             14
*inst name         cell_name          a            din          dout          q           xin            xout
B1                 9                  0            jjmod        area=1.0
B2                 5                  0            jjmod        area=1.0
Kd1                Ld                 L1           -0.135
Kd2                Ld                 L2           -0.135
Kdout              Ld                 Lout         0.0
Kdq                Ld                 Lq           0.0
Kout               Lq                 Lout         -0.495
Kx1                Lx                 L1           -0.187
Kx2                Lx                 L2           -0.187
Kxd                Lx                 Ld           0.192
Kxout              Lx                 Lout         0.0
Kxq                Lx                 Lq           0.0
L1                 8                  9            1.59pH
L2                 5                  8            1.59pH
Ld                 2                  3            7.43pH
Lin                1                  8            1.24pH
Lout               6                  12           31.1pH
Lq                 8                  0            7.92pH
Lx                 13                 14           7.38pH
R1                 6                  0            1e-12ohm
.ends


.subckt            spl3L              1            2            3             9           10             11                     12    13
*inst name         cell_name          a            din          dout          x           xin            xout                   y     z
XI0                bfrL               1            4            6             7           8              5
XI14               bias_pair_20um     10           8            2             4
XI15               bias_pair_20um     5            11           6             3
XI1                branch3            9            12           13            7
.ends


.subckt            maj_bib            1            2            3             4           5              13                     14    15
*inst name         cell_name          a            b            c             din         dout           q                      xin   xout
XI0                bfr                1            4            9             11          14             6
XI2                bfr                3            7            5             10          8              15
XI3                branch3            11           12           10            13
XI1                inv                2            9            7             12          6              8
.ends


.subckt            maj_ibb            1            2            3             4           5              13                     14    15
*inst name         cell_name          a            b            c             din         dout           q                      xin   xout
XI1                bfr                2            8            10            12          6              7
XI2                bfr                3            10           5             9           7              15
XI3                branch3            11           12           9             13
XI0                inv                1            4            8             11          14             6
.ends


.subckt            maj_bbb            1            2            3             4           5              13                     14    15
*inst name         cell_name          a            b            c             din         dout           q                      xin   xout
XI0                bfr                1            4            8             11          14             6
XI1                bfr                2            8            10            12          6              7
XI2                bfr                3            10           5             9           7              15
XI3                branch3            11           12           9             13
.ends


.subckt            sink               1            2            3             10          11
*inst name         cell_name          a            din          dout          xin         xout
B1                 8                  0            jjmod        area=0.5
B2                 5                  0            jjmod        area=0.5
Kd1                Ld                 L1           -0.133
Kd2                Ld                 L2           -0.133
Kdq                Ld                 Lq           0.0
Kx1                Lx                 L1           -0.186
Kx2                Lx                 L2           -0.186
Kxd                Lx                 Ld           0.19
Kxq                Lx                 Lq           0.0
L1                 7                  8            1.59pH
L2                 5                  7            1.59pH
Ld                 2                  3            7.45pH
Lin                1                  7            1.23pH
Lq                 7                  0            7.92pH
Lx                 10                 11           7.4pH
.ends


.subckt            and_bi             1            2            3             4           12             13                     14
*inst name         cell_name          a            b            din           dout        q              xin                    xout
XI0                bfr                1            3            8             9           13             5
XI3                branch3            9            7            10            12
XI1                const0             8            11           7             5           6
XI2                inv                2            11           4             10          6              14
.ends


.subckt            const1             1            2            7             8           9
*inst name         cell_name          din          dout         q             xin         xout
L1                 8                  4            0.01pH
L2                 6                  9            0.01pH
L3                 1                  3            0.01pH
L4                 5                  2            0.01pH
XI0                const0             5            3            7             6           4
.ends


.subckt            or_bb              1            2            3             4           12             13                     14
*inst name         cell_name          a            b            din           dout        q              xin                    xout
XI0                bfr                1            3            8             9           13             5
XI2                bfr                2            11           4             10          6              14
XI3                branch3            9            7            10            12
XI1                const1             8            11           7             5           6
.ends


*this is top cell  8bit_RCA_ene_opt
R10                969                342          1000.0ohm
R11                662                546          1000.0ohm
R12                456                750          1000.0ohm
R13                678                592          1000.0ohm
R14                747                619          1000.0ohm
R15                737                736          1000.0ohm
R16                519                734          1000.0ohm
R17                733                741          1000.0ohm
R19                365                785          1000.0ohm
R3                 974                992          1000.0ohm
R4                 957                826          1000.0ohm
R5                 955                831          1000.0ohm
R6                 958                1084         1000.0ohm
R7                 966                1103         1000.0ohm
R8                 857                1070         1000.0ohm
R9                 845                1097         1000.0ohm
Rac1               963                1177         100000.0ohm
Rac2               951                1180         100000.0ohm
Rdc1               979                532          100000.0ohm
V10                969                0            PWL          (0ps          0mv  20ps {{input[0]}})
V11                662                0            PWL          (0ps          0mv  20ps {{input[1]}})
V12                456                0            PWL          (0ps          0mv  20ps {{input[2]}})
V13                678                0            PWL          (0ps          0mv  20ps {{input[3]}})
V14                747                0            PWL          (0ps          0mv  20ps {{input[4]}})
V15                737                0            PWL          (0ps          0mv  20ps {{input[5]}})
V16                519                0            PWL          (0ps          0mv  20ps {{input[6]}})
V17                733                0            PWL          (0ps          0mv  20ps {{input[7]}})
V19                365                0            PWL          (0ps          0mv  20ps {{input[8]}})
V3                 974                0            PWL          (0ps          0mv  20ps {{input[9]}})
V4                 957                0            PWL          (0ps          0mv  20ps {{input[10]}})
V5                 955                0            PWL          (0ps          0mv  20ps {{input[11]}})
V6                 958                0            PWL          (0ps          0mv  20ps {{input[12]}})
V7                 966                0            PWL          (0ps          0mv  20ps {{input[13]}})
V8                 857                0            PWL          (0ps          0mv  20ps {{input[14]}})
V9                 845                0            PWL          (0ps          0mv  20ps {{input[15]}})
VDC                979                0            PWL          (0ps          0mV         20ps           113000mV)
VAC1               963                0            SIN          (0            81000mV     {{freq}}MEGHz  {{40+period|int/4}}ps  0)
VAC2               951                0            SIN          (0            81000mV     {{freq}}MEGHz  40ps                   0)
XI0                and_bb             305          115          296           503         859            344                    706
XI395              and_bi             312          136          295           280         326            716                    337
XI396              and_bi             347          323          280           823         329            337                    980
XI100              bfr                1019         405          332           1096        380            1040
XI101              bfr                137          1000         405           562         324            380
XI102              bfr                1076         1115         1000          1081        322            324
XI103              bfr                1028         386          865           162         1082           377
XI104              bfr                1085         383          386           290         381            1082
XI105              bfr                1015         321          383           1043        320            381
XI106              bfr                244          395          321           1019        394            320
XI107              bfr                1104         1031         395           137         1052           394
XI108              bfr                1089         378          1031          1076        1118           1052
XI109              bfr                1011         1048         1095          89          327            343
XI110              bfr                267          328          1048          118         401            327
XI111              bfr                271          1074         328           712         400            401
XI112              bfr                1096         891          1074          29          388            400
XI113              bfr                562          1077         891           173         1001           388
XI114              bfr                1081         407          1077          248         1121           1001
XI117              bfr                1170         981          403           719         402            345
XI118              bfr                719          928          361           921         652            359
XI119              bfr                995          403          944           936         345            1029
XI120              bfr                789          973          932           995         351            352
XI121              bfr                936          361          990           999         359            1054
XI122              bfr                1173         1022         714           789         362            923
XI123              bfr                1108         944          369           1049        1029           1092
XI124              bfr                1049         990          369           1073        1054           573
XI125              bfr                179          714          924           58          923            1119
XI126              bfr                1174         930          934           117         977            1119
XI127              bfr                58           932          924           1108        352            935
XI128              bfr                117          371          934           179         370            935
XI129              bfr                29           35           397           333         938            396
XI130              bfr                712          397          948           372         396            51
XI131              bfr                89           355          713           239         356            82
XI132              bfr                118          948          355           292         51             356
XI133              bfr                705          358          276           708         949            259
XI134              bfr                173          387          35            705         363            938
XI135              bfr                372          390          991           451         391            366
XI136              bfr                451          303          216           594         210            221
XI137              bfr                248          254          387           677         61             363
XI138              bfr                292          991          516           1171        366            367
XI139              bfr                239          516          503           1172        367            706
XI140              bfr                594          989          987           1169        986            551
XI141              bfr                526          985          989           1168        325            986
XI142              bfr                720          434          978           1165        132            349
XI143              bfr                722          978          704           1166        349            1020
XI144              bfr                715          112          385           720         336            384
XI145              bfr                717          385          834           722         384            885
XI146              bfr                709          376          354           715         418            964
XI147              bfr                707          298          374           709         38             360
XI148              bfr                708          374          338           710         360            340
XI149              bfr                710          354          985           717         964            325
XI150              bfr                404          338          303           526         340            210
XI151              bfr                677          44           358           707         348            949
XI152              bfr                333          276          390           404         259            391
XI156              bfr                688          1111         278           654         286            287
XI157              bfr                593          285          282           638         281            283
XI158              bfr                654          643          275           593         279            273
XI165              bfr                549          278          277           470         287            266
XI166              bfr                897          282          265           784         283            263
XI167              bfr                470          275          262           897         273            274
XI168              bfr                480          272          260           494         976            257
XI169              bfr                494          270          269           549         675            253
XI172              bfr                459          277          268           499         266            251
XI173              bfr                661          265          250           786         263            264
XI174              bfr                499          262          261           661         274            246
XI175              bfr                460          260          258           440         257            245
XI176              bfr                471          256          242           460         1013           240
XI177              bfr                440          269          255           459         253            243
XI179              bfr                627          268          770           469         251            252
XI180              bfr                450          250          249           788         264            757
XI181              bfr                469          261          247           450         246            774
XI182              bfr                582          258          1060          493         245            651
XI183              bfr                493          255          1056          627         243            1053
XI184              bfr                424          242          1025          582         240            241
XI186              bfr                598          236          230           408         209            228
XI187              bfr                408          670          238           411         237            232
XI188              bfr                478          236          234           598         237            235
XI190              bfr                399          238          686           393         232            1008
XI191              bfr                691          234          227           389         235            231
XI192              bfr                389          230          942           399         228            229
XI194              bfr                379          227          225           382         231            224
XI200              bfr                585          225          1007          701         224            1006
XI212              bfr                613          223          222           471         491            220
XI220              bfr                197          222          1027          424         220            461
XI221              bfr                693          1004         218           197         1005           219
XI222              bfr                189          217          215           693         455            668
XI226              bfr                167          213          204           501         214            202
XI227              bfr                501          213          211           478         209            200
XI228              bfr                2            208          206           167         205            207
XI229              bfr                522          204          192           467         202            203
XI230              bfr                565          206          195           522         207            193
XI231              bfr                467          211          201           691         200            196
XI232              bfr                149          201          198           379         196            199
XI233              bfr                1140         195          194           145         193            186
XI234              bfr                145          192          190           149         203            191
XI235              bfr                133          190          182           472         191            188
XI236              bfr                472          198          640           585         199            187
XI237              bfr                1134         194          185           133         186            183
XI238              bfr                674          185          176           610         183            184
XI239              bfr                610          182          181           126         188            177
XI240              bfr                111          181          599           106         177            178
XI241              bfr                665          176          175           111         184            919
XI249              bfr                1161         208          169           2           214            174
XI250              bfr                482          172          170           1161        205            171
XI251              bfr                1147         169          168           565         174            161
XI252              bfr                607          170          166           1147        171            164
XI253              bfr                1050         166          165           1136        164            155
XI254              bfr                1136         168          163           1140        161            158