.model             jjmod                    jj(Rtype=1,  Vg=2.8mV,    Cap=0.064pF,  R0=100ohm,  Rn=17ohm,      Icrit=0.1mA)


.subckt            and_bb                   1            2            3             4           12             13              14
*inst name         cell_name                a            b            din           dout        q              xin             xout
XI0                bfr                      1            3            8             9           13             5
XI2                bfr                      2            11           4             10          7              14
XI3                branch3                  9            6            10            12
XI1                const0                   8            11           6             5           7
.ends


.subckt            and_bi                   1            2            3             4           12             13              14
*inst name         cell_name                a            b            din           dout        q              xin             xout
XI0                bfr                      1            3            8             9           13             5
XI3                branch3                  9            7            10            12
XI1                const0                   8            11           7             5           6
XI2                inv                      2            11           4             10          6              14
.ends


.subckt            and_ib                   1            2            3             4           12             13              14
*inst name         cell_name                a            b            din           dout        q              xin             xout
XI2                bfr                      2            11           4             10          6              14
XI3                branch3                  9            8            10            12
XI1                const0                   7            11           8             5           6
XI0                inv                      1            3            7             9           13             5
.ends


.subckt            bfr                      1            2            3             12          13             14
*inst name         cell_name                a            din          dout          q           xin            xout
B1                 9                        0            jjmod        area=0.5
B2                 5                        0            jjmod        area=0.5
Kd1                Ld                       L1           -0.133
Kd2                Ld                       L2           -0.133
Kdout              Ld                       Lout         0.0
Kdq                Ld                       Lq           0.0
Kout               Lq                       Lout         -0.495
Kx1                Lx                       L1           -0.186
Kx2                Lx                       L2           -0.186
Kxd                Lx                       Ld           0.19
Kxout              Lx                       Lout         0.0
Kxq                Lx                       Lq           0.0
L1                 8                        9            1.59pH
L2                 5                        8            1.59pH
Ld                 2                        3            7.45pH
Lin                1                        8            1.23pH
Lout               6                        12           31.2pH
Lq                 8                        0            7.92pH
Lx                 13                       14           7.4pH
R1                 6                        0            1e-12ohm
.ends


.subckt            bfrL                     1            2            3             12          13             14
*inst name         cell_name                a            din          dout          q           xin            xout
B1                 9                        0            jjmod        area=1.0
B2                 5                        0            jjmod        area=1.0
Kd1                Ld                       L1           -0.135
Kd2                Ld                       L2           -0.135
Kdout              Ld                       Lout         0.0
Kdq                Ld                       Lq           0.0
Kout               Lq                       Lout         -0.495
Kx1                Lx                       L1           -0.187
Kx2                Lx                       L2           -0.187
Kxd                Lx                       Ld           0.192
Kxout              Lx                       Lout         0.0
Kxq                Lx                       Lq           0.0
L1                 8                        9            1.59pH
L2                 5                        8            1.59pH
Ld                 2                        3            7.43pH
Lin                1                        8            1.24pH
Lout               6                        12           31.1pH
Lq                 8                        0            7.92pH
Lx                 13                       14           7.38pH
R1                 6                        0            1e-12ohm
.ends


.subckt            bias_pair_10um           1            2            3             4
*inst name         cell_name                a            b            c             d
*C0                 2                        0            0.00145pF
*C6                 4                        0            0.00144pF
L0                 1                        2            3.46pH
L1                 3                        4            3.73pH
.ends


.subckt            bias_pair_20um           1            2            3             4
*inst name         cell_name                a            b            c             d
XI0                bias_pair_10um           1            6            3             5
XI1                bias_pair_10um           6            2            5             4
.ends


.subckt            branch2                  1            2            3
*inst name         cell_name                a            b            c
Lip                6                        3            0.282pH
Lp1                1                        5            11.0pH
Lp2                2                        4            11.0pH
R0                 5                        6            1e-12ohm
R1                 4                        6            1e-12ohm
.ends


.subckt            branch3                  1            2            3             4
*inst name         cell_name                a            b            c             d
Lip                7                        4            0.312pH
Lp1                1                        6            11.8pH
Lp2                2                        7            10.2pH
Lp3                3                        5            11.8pH
R0                 6                        7            1e-12ohm
R1                 5                        7            1e-12ohm
.ends


.subckt            const0                   1            2            11            12          13
*inst name         cell_name                din          dout         q             xin         xout
B1                 8                        0            jjmod        area=0.5
B2                 4                        0            jjmod        area=0.5
Kd1                Ld                       L1           -0.128
Kd2                Ld                       L2           -0.135
Kdout              Ld                       Lout         -0.000253
Kdq                Ld                       Lq           -0.00468
Kout               Lq                       Lout         -0.495
Kx1                Lx                       L1           -0.185
Kx2                Lx                       L2           -0.189
Kxd                Lx                       Ld           0.193
Kxout              Lx                       Lout         -7.94e-05
Kxq                Lx                       Lq           -0.00421
L1                 7                        8            1.56pH
L2                 4                        7            1.66pH
Ld                 1                        2            7.49pH
Lout               5                        11           31.2pH
Lq                 7                        0            7.82pH
Lx                 12                       13           7.47pH
R1                 5                        0            1e-12ohm
.ends


.subckt            const1                   1            2            7             8           9
*inst name         cell_name                din          dout         q             xin         xout
L1                 8                        4            0.01pH
L2                 6                        9            0.01pH
L3                 1                        3            0.01pH
L4                 5                        2            0.01pH
XI0                const0                   5            3            7             6           4
.ends


.subckt            inv                      1            2            3             12          13             14
*inst name         cell_name                a            din          dout          q           xin            xout
B1                 9                        0            jjmod        area=0.6
B2                 5                        0            jjmod        area=0.6
Kd1                Ld                       L1           -0.133
Kd2                Ld                       L2           -0.133
Kdout              Ld                       Lout         0.0
Kdq                Ld                       Lq           0.0
Kout               Lq                       Lout         0.432
Kx1                Lx                       L1           -0.186
Kx2                Lx                       L2           -0.186
Kxd                Lx                       Ld           0.19
Kxout              Lx                       Lout         0.0
Kxq                Lx                       Lq           0.0
L1                 8                        9            1.59pH
L2                 5                        8            1.59pH
Ld                 2                        3            7.44pH
Lin                1                        8            1.24pH
Lout               6                        12           31.0pH
Lq                 8                        0            6.49pH
Lx                 13                       14           7.39pH
R1                 6                        0            1e-12ohm
.ends


.subckt            or_bb                    1            2            3             4           12             13              14
*inst name         cell_name                a            b            din           dout        q              xin             xout
XI0                bfr                      1            3            8             9           13             5
XI2                bfr                      2            11           4             10          6              14
XI3                branch3                  9            7            10            12
XI1                const1                   8            11           7             5           6
.ends


.subckt            sink                     1            2            3             10          11
*inst name         cell_name                a            din          dout          xin         xout
B1                 8                        0            jjmod        area=0.5
B2                 5                        0            jjmod        area=0.5
Kd1                Ld                       L1           -0.133
Kd2                Ld                       L2           -0.133
Kdq                Ld                       Lq           0.0
Kx1                Lx                       L1           -0.186
Kx2                Lx                       L2           -0.186
Kxd                Lx                       Ld           0.19
Kxq                Lx                       Lq           0.0
L1                 7                        8            1.59pH
L2                 5                        7            1.59pH
Ld                 2                        3            7.45pH
Lin                1                        7            1.23pH
Lq                 7                        0            7.92pH
Lx                 10                       11           7.4pH
.ends


.subckt            spl2                     1            2            3             9           10             11              12
*inst name         cell_name                a            din          dout          x           xin            xout            y
XI0                bfr                      1            4            6             7           8              5
XI14               bias_pair_10um           10           8            2             4
XI15               bias_pair_10um           5            11           6             3
XI1                branch2                  9            12           7
.ends


.subckt            spl3L                    1            2            3             9           10             11              12                13
*inst name         cell_name                a            din          dout          x           xin            xout            y                 z
XI0                bfrL                     1            4            6             7           8              5
XI14               bias_pair_20um           10           8            2             4
XI15               bias_pair_20um           5            11           6             3
XI1                branch3                  9            12           13            7
.ends


.subckt            maj_1bbbb_2_left         1            2            3             4           5              6               20                21         22
*inst name         cell_name                a            b            c             d           din            dout            q                 xin        xout
XI0                bfr                      1            19           17            10          11             7
XI1                bfr                      2            17           18            13          7              9
XI2                bfr                      3            18           12            15          9              16
XI7                bfr                      4            12           6             14          16             22
XI8                branch5to1_5             8            10           13            15          14             20
XI9                const1                   5            19           8             21          11
.ends


.subckt            maj_1bbbb_2_right        1            2            3             4           5              6               20                21         22
*inst name         cell_name                a            b            c             d           din            dout            q                 xin        xout
XI0                bfr                      1            19           17            10          11             7
XI1                bfr                      2            17           18            13          7              9
XI2                bfr                      3            18           12            15          9              16
XI7                bfr                      4            12           6             14          16             22
XI8                branch5to1_5             8            10           13            15          14             20
XI9                const1                   19           5            8             11          21
.ends


.subckt            risako_GP_ene_opt        1            2            3             4           5              6               7                 8          9          10        11        12         13         14         15         16
*inst name         cell_name                G            P            a             ac_in<0>    ac_in<1>       ac_in<2>        ac_out<0>         ac_out<1>  ac_out<2>  b         dc_in<0>  dc_in<1>   dc_in<2>   dc_out<0>  dc_out<1>  dc_out<2>
XI117              and_bb                   31           28           27            12          20             26              5
XI116              and_bi                   30           33           15            23          25             8               29
XI115              and_ib                   24           32           23            27          17             29              26
XI2                bfr                      20           21           11            1           22             4
XI5                or_bb                    17           25           21            14          2              22              7
XI0                spl3L                    3            19           13            33          18             6               32                28
XI1                spl3L                    10           16           19            30          9              18              24                31
.ends


.subckt            risako_SUM_ene_opt       1            2            3             4           5              6               7                 8          9          10        11        12         13         14         25
*inst name         cell_name                Carry        P            ac_in<0>      ac_in<1>    ac_in<2>       ac_out<0>       ac_out<1>         ac_out<2>  dc_in<0>   dc_in<1>  dc_in<2>  dc_out<0>  dc_out<1>  dc_out<2>  sum
XI533              and_bi                   23           15           20            10          19             17              4
XI543              and_ib                   21           22           13            20          24             7               17
XI552              or_bb                    19           24           9             12          25             3               6
XI0                spl2                     1            11           18            15          5              16              22
XI1                spl2                     2            18           14            23          16             8               21
.ends


.subckt            branch5to1_5             1            2            3             4           5              6
*inst name         cell_name                a            b            c             d           e              f
L0                 8                        6            0.665pH
L1                 1                        10           26.7pH
L2                 2                        7            24.9pH
L3                 3                        8            22.9pH
L4                 4                        9            24.9pH
L5                 5                        11           26.8pH
R0                 7                        10           1e-12ohm
R1                 8                        7            1e-12ohm
R2                 9                        8            1e-12ohm
R3                 11                       9            1e-12ohm
.ends


*this is top cell  maj5_16_bit_KSA_ene_opt
R0                 1894                     494          1000.0ohm
R1                 2016                     414          1000.0ohm
R10                2336                     1630         1000.0ohm
R11                2436                     1365         1000.0ohm
R12                182                      2983         1000.0ohm
R13                148                      1124         1000.0ohm
R14                772                      1775         1000.0ohm
R15                815                      1727         1000.0ohm
R16                822                      555          1000.0ohm
R17                830                      461          1000.0ohm
R18                837                      274          1000.0ohm
R19                869                      2763         1000.0ohm
R2                 2027                     74           1000.0ohm
R20                876                      2967         1000.0ohm
R21                884                      1047         1000.0ohm
R22                899                      824          1000.0ohm
R23                909                      1312         1000.0ohm
R24                919                      1780         1000.0ohm
R25                929                      1729         1000.0ohm
R26                935                      1678         1000.0ohm
R27                946                      1443         1000.0ohm
R28                957                      2609         1000.0ohm
R29                1199                     1101         1000.0ohm
R3                 2096                     2914         1000.0ohm
R30                1416                     1297         1000.0ohm
R31                1465                     1672         1000.0ohm
R33                2714                     26           100000.0ohm
R4                 2175                     7            1000.0ohm
R5                 2221                     1126         1000.0ohm
R6                 2223                     1160         1000.0ohm
R7                 2315                     1790         1000.0ohm
R8                 2320                     1751         1000.0ohm
R9                 2329                     1710         1000.0ohm
Rac1               2686                     3016         100000.0ohm
Rac2               2947                     3019         100000.0ohm
V0                 1894                     0            PWL          (0ps          0mv         20ps           {{input[21]}})
V1                 2016                     0            PWL          (0ps          0mv         20ps           {{input[23]}})
V10                2336                     0            PWL          (0ps          0mv         20ps           {{input[18]}})
V11                2436                     0            PWL          (0ps          0mv         20ps           {{input[20]}})
V12                182                      0            PWL          (0ps          0mv         20ps           {{input[0]}})
V13                148                      0            PWL          (0ps          0mv         20ps           {{input[2]}})
V14                772                      0            PWL          (0ps          0mv         20ps           {{input[4]}})
V15                815                      0            PWL          (0ps          0mv         20ps           {{input[6]}})
V16                822                      0            PWL          (0ps          0mv         20ps           {{input[22]}})
V17                830                      0            PWL          (0ps          0mv         20ps           {{input[24]}})
V18                837                      0            PWL          (0ps          0mv         20ps           {{input[26]}})
V19                869                      0            PWL          (0ps          0mv         20ps           {{input[28]}})
V2                 2027                     0            PWL          (0ps          0mv         20ps           {{input[25]}})
V20                876                      0            PWL          (0ps          0mv         20ps           {{input[30]}})
V21                884                      0            PWL          (0ps          0mv         20ps           {{input[9]}})
V22                899                      0            PWL          (0ps          0mv         20ps           {{input[11]}})
V23                909                      0            PWL          (0ps          0mv         20ps           {{input[13]}})
V24                919                      0            PWL          (0ps          0mv         20ps           {{input[15]}})
V25                929                      0            PWL          (0ps          0mv         20ps           {{input[17]}})
V26                935                      0            PWL          (0ps          0mv         20ps           {{input[19]}})
V27                946                      0            PWL          (0ps          0mv         20ps           {{input[8]}})
V28                957                      0            PWL          (0ps          0mv         20ps           {{input[1]}})
V29                1199                     0            PWL          (0ps          0mv         20ps           {{input[3]}})
V3                 2096                     0            PWL          (0ps          0mv         20ps           {{input[27]}})
V30                1416                     0            PWL          (0ps          0mv         20ps           {{input[5]}})
V31                1465                     0            PWL          (0ps          0mv         20ps           {{input[7]}})
V4                 2175                     0            PWL          (0ps          0mv         20ps           {{input[29]}})
V5                 2221                     0            PWL          (0ps          0mv         20ps           {{input[31]}})
V6                 2223                     0            PWL          (0ps          0mv         20ps           {{input[10]}})
V7                 2315                     0            PWL          (0ps          0mv         20ps           {{input[12]}})
V8                 2320                     0            PWL          (0ps          0mv         20ps           {{input[14]}})
V9                 2329                     0            PWL          (0ps          0mv         20ps           {{input[16]}})
VDC                2714                     0            PWL          (0ps          0mv         20ps           113000mV)
VAC1               2686                     0            SIN          (0            81000mV     {{freq}}MEGHz  {{40+           period|int/4}}ps  0)
VAC2               2947                     0            SIN          SIN(0         81000mV     {{freq}}MEGHz  40ps            0)
XI24               and_bb                   1821         617          1359          1901        2197           1260            1876
XI26               and_bb                   2430         1769         2558          1847        1995           2527            1831
XI28               and_bb                   2431         1786         2725          1871        2514           2723            1867
XI30               and_bb                   1797         637          2731          1920        2511           2730            1913
XI33               and_bb                   500          3003         2845          1708        2622           2846            1697
XI35               and_bb                   404          561          2848          1749        2632           2847            1733
XI387              and_bb                   1527         162          1145          1557        1347           1138            1547
XI389              and_bb                   1631         447          1575          1341        1355           1567            1340
XI39               and_bb                   552          381          2861          1676        2580           2859            1641
XI476              and_bb                   1290         595          1041          1377        1243           1034            1337
XI487              and_bb                   1328         755          1487          1256        1251           1456            1255
XI500              and_bb                   722          1536         1125          1509        1318           1118            1498
XI513              and_bb                   374          2417         2950          367         1000           2762            345
XI526              and_bb                   450          2420         98            421         1033           820             409
XI539              and_bb                   508          2422         661           470         1056           252             459
XI552              and_bb                   568          2424         302           557         1086           285             542
XI565              and_bb                   1060         2426         662           1053        1116           656             1012
XI600              and_bb                   108          672          1117          1140        1146           1113            1139
XI613              and_bb                   2966         520          1150          1164        1170           1129            1163
XI629              and_bb                   54           622          1219          1189        1200           1212            1188
XI639              and_bb                   2907         1004         2899          787         796            2812            786
XI649              and_bb                   52           2792         3000          813         324            2979            812
XI662              and_bb                   173          2906         80            833         839            72              832
XI672              and_bb                   227          2917         209           859         318            183             858
XI682              and_bb                   333          163          322           879         270            311             878
XI700              and_bb                   739          2595         914           911         913            915             910
XI715              and_bb                   757          2928         941           926         940            942             925
XI725              and_bb                   762          2356         958           954         956            959             953
XI735              and_bb                   742          2574         974           971         973            975             970
XI777              and_bb                   1760         2432         2748          1993        2043           2747            1931